
     RDKit          2D

  8  8  0  0  0  0  0  0  0  0999 V2000
    2.8515   -0.9330    0.0000 C   0  0  0  0  0  0  0  0  0  0  0  0
    1.7267    0.0594    0.0000 C   0  0  0  0  0  0  0  0  0  0  0  0
    1.2488    1.4812    0.0000 O   0  0  0  0  0  0  0  0  0  0  0  0
    0.2564    0.3564    0.0000 C   0  0  0  0  0  0  0  0  0  0  0  0
   -1.1654   -0.1215    0.0000 P   0  0  0  0  0  0  0  0  0  0  0  0
   -2.5872   -0.5995    0.0000 O   0  0  0  0  0  0  0  0  0  0  0  0
   -1.6433    1.3003    0.0000 O   0  0  0  0  0  0  0  0  0  0  0  0
   -0.6875   -1.5433    0.0000 O   0  0  0  0  0  0  0  0  0  0  0  0
  2  1  1  1
  2  3  1  0
  3  4  1  0
  4  5  1  1
  5  6  2  0
  5  7  1  0
  5  8  1  0
  4  2  1  0
M  END
>  <zinc_id>  (1) 
ZINC000001530427

>  <smiles>  (1) 
C[C@@H]1O[C@@H]1P(=O)(O)O

$$$$

     RDKit          3D

 25 28  0  0  0  0  0  0  0  0999 V2000
    2.4386    0.7533    2.0057 Cl  0  0  0  0  0  0  0  0  0  0  0  0
    2.4734    0.0411    0.4004 C   0  0  0  0  0  0  0  0  0  0  0  0
    3.7329   -0.2050   -0.1428 C   0  0  0  0  0  0  0  0  0  0  0  0
    3.8944   -0.8352   -1.3529 C   0  0  0  0  0  0  0  0  0  0  0  0
    2.7739   -1.2432   -2.0644 C   0  0  0  0  0  0  0  0  0  0  0  0
    1.5678   -0.9911   -1.5166 C   0  0  0  0  0  0  0  0  0  0  0  0
    1.3530   -0.3469   -0.2805 C   0  0  0  0  0  0  0  0  0  0  0  0
   -0.0224   -0.0457    0.1702 C   0  0  0  0  0  0  0  0  0  0  0  0
   -0.4030    1.3863    0.2027 C   0  0  0  0  0  0  0  0  0  0  0  0
   -1.6744    1.7638   -0.3048 C   0  0  0  0  0  0  0  0  0  0  0  0
   -2.1271    3.0501   -0.3359 C   0  0  0  0  0  0  0  0  0  0  0  0
   -1.3157    4.0539    0.1497 C   0  0  0  0  0  0  0  0  0  0  0  0
   -0.0511    3.7515    0.6635 C   0  0  0  0  0  0  0  0  0  0  0  0
    0.3106    2.4469    0.6524 C   0  0  0  0  0  0  0  0  0  0  0  0
   -0.9450   -0.7058   -0.8121 C   0  0  0  0  0  0  0  0  0  0  0  0
   -1.7515   -1.7604   -0.4858 C   0  0  0  0  0  0  0  0  0  0  0  0
   -2.5768   -2.3226   -1.4330 C   0  0  0  0  0  0  0  0  0  0  0  0
   -2.6117   -1.8425   -2.7206 C   0  0  0  0  0  0  0  0  0  0  0  0
   -1.8100   -0.7886   -3.0591 C   0  0  0  0  0  0  0  0  0  0  0  0
   -0.9884   -0.2337   -2.1053 C   0  0  0  0  0  0  0  0  0  0  0  0
   -0.2777   -0.6603    1.4686 N   0  0  0  0  0  0  0  0  0  0  0  0
   -0.8643   -0.1229    2.5349 C   0  0  0  0  0  0  0  0  0  0  0  0
   -0.8836   -1.0666    3.5316 C   0  0  0  0  0  0  0  0  0  0  0  0
   -0.3028   -2.1698    3.0459 N   0  0  0  0  0  0  0  0  0  0  0  0
    0.0610   -1.9063    1.7883 C   0  0  0  0  0  0  0  0  0  0  0  0
  1  2  1  0
  2  3  2  0
  3  4  1  0
  4  5  2  0
  5  6  1  0
  6  7  2  0
  7  8  1  0
  8  9  1  0
  9 10  2  0
 10 11  1  0
 11 12  2  0
 12 13  1  0
 13 14  2  0
  8 15  1  0
 15 16  2  0
 16 17  1  0
 17 18  2  0
 18 19  1  0
 19 20  2  0
  8 21  1  0
 21 22  1  0
 22 23  2  0
 23 24  1  0
 24 25  2  0
  7  2  1  0
 14  9  1  0
 20 15  1  0
 25 21  1  0
M  END
>  <zinc_id>  (2) 
ZINC000003807804

>  <smiles>  (2) 
Clc1ccccc1C(c1ccccc1)(c1ccccc1)n1ccnc1

$$$$

     RDKit          3D

 19 21  0  0  0  0  0  0  0  0999 V2000
   -5.4126   -0.4083    0.6810 N   0  0  0  0  0  0  0  0  0  0  0  0
   -4.0059   -0.1420    0.5753 C   0  0  0  0  0  0  0  0  0  0  0  0
   -3.5394    1.0834    0.9130 N   0  0  0  0  0  0  0  0  0  0  0  0
   -2.2415    1.4156    0.8438 C   0  0  0  0  0  0  0  0  0  0  0  0
   -1.7578    2.7115    1.2022 N   0  0  0  0  0  0  0  0  0  0  0  0
   -1.3558    0.4588    0.4087 C   0  0  0  0  0  0  0  0  0  0  0  0
   -0.0354    0.6964    0.3055 N   0  0  0  0  0  0  0  0  0  0  0  0
    0.8431   -0.2233   -0.1164 C   0  0  0  0  0  0  0  0  0  0  0  0
    2.2731    0.0774   -0.2139 C   0  0  0  0  0  0  0  0  0  0  0  0
    3.1793   -0.8309    0.2603 C   0  0  0  0  0  0  0  0  0  0  0  0
    4.5341   -0.5982    0.1935 C   0  0  0  0  0  0  0  0  0  0  0  0
    4.9684    0.5841   -0.3683 C   0  0  0  0  0  0  0  0  0  0  0  0
    4.0652    1.4963   -0.8444 C   0  0  0  0  0  0  0  0  0  0  0  0
    2.7182    1.2393   -0.7654 C   0  0  0  0  0  0  0  0  0  0  0  0
    0.3913   -1.4678   -0.4624 C   0  0  0  0  0  0  0  0  0  0  0  0
    1.2670   -2.4998   -0.9207 N   0  0  0  0  0  0  0  0  0  0  0  0
   -0.9309   -1.7240   -0.3650 N   0  0  0  0  0  0  0  0  0  0  0  0
   -1.8177   -0.7889    0.0631 C   0  0  0  0  0  0  0  0  0  0  0  0
   -3.1426   -1.0798    0.1495 N   0  0  0  0  0  0  0  0  0  0  0  0
  1  2  1  0
  2  3  2  0
  3  4  1  0
  4  5  1  0
  4  6  2  0
  6  7  1  0
  7  8  2  0
  8  9  1  0
  9 10  2  0
 10 11  1  0
 11 12  2  0
 12 13  1  0
 13 14  2  0
  8 15  1  0
 15 16  1  0
 15 17  2  0
 17 18  1  0
 18 19  2  0
 19  2  1  0
 18  6  1  0
 14  9  1  0
M  END
>  <zinc_id>  (3) 
ZINC000000120286

>  <smiles>  (3) 
Nc1nc(N)c2nc(-c3ccccc3)c(N)nc2n1

$$$$

     RDKit          2D

 55 62  0  0  0  0  0  0  0  0999 V2000
   -2.2856    3.6137    0.0000 C   0  0  0  0  0  0  0  0  0  0  0  0
   -3.6873    4.1480    0.0000 C   0  0  0  0  0  0  0  0  0  0  0  0
   -4.8508    3.2012    0.0000 O   0  0  0  0  0  0  0  0  0  0  0  0
   -6.2524    3.7354    0.0000 C   0  0  0  0  0  0  0  0  0  0  0  0
   -7.4159    2.7887    0.0000 O   0  0  0  0  0  0  0  0  0  0  0  0
   -7.1777    1.3077    0.0000 C   0  0  0  0  0  0  0  0  0  0  0  0
   -8.3412    0.3609    0.0000 C   0  0  0  0  0  0  0  0  0  0  0  0
   -9.7428    0.8951    0.0000 C   0  0  0  0  0  0  0  0  0  0  0  0
   -8.1030   -1.1200    0.0000 O   0  0  0  0  0  0  0  0  0  0  0  0
   -6.7013   -1.6542    0.0000 C   0  0  0  0  0  0  0  0  0  0  0  0
   -6.4632   -3.1352    0.0000 O   0  0  0  0  0  0  0  0  0  0  0  0
   -5.0615   -3.6694    0.0000 C   0  0  0  0  0  0  0  0  0  0  0  0
   -4.8233   -5.1504    0.0000 C   0  0  0  0  0  0  0  0  0  0  0  0
   -5.9868   -6.0972    0.0000 C   0  0  0  0  0  0  0  0  0  0  0  0
   -3.4217   -5.6846    0.0000 O   0  0  0  0  0  0  0  0  0  0  0  0
   -2.2582   -4.7379    0.0000 C   0  0  0  0  0  0  0  0  0  0  0  0
   -0.8566   -5.2721    0.0000 O   0  0  0  0  0  0  0  0  0  0  0  0
    0.3069   -4.3253    0.0000 C   0  0  0  0  0  0  0  0  0  0  0  0
    1.7085   -4.8595    0.0000 C   0  0  0  0  0  0  0  0  0  0  0  0
    2.8720   -3.9128    0.0000 C   0  0  0  0  0  0  0  0  0  0  0  0
    2.6338   -2.4318    0.0000 C   0  0  0  0  0  0  0  0  0  0  0  0
    4.0355   -2.9660    0.0000 C   0  0  0  0  0  0  0  0  0  0  0  0
    1.2322   -1.8976    0.0000 C   0  0  0  0  0  0  0  0  0  0  0  0
    0.9940   -0.4166    0.0000 C   0  0  0  0  0  0  0  0  0  0  0  0
    2.1575    0.5301    0.0000 C   0  0  0  0  0  0  0  0  0  0  0  0
    3.5591   -0.0041    0.0000 C   0  0  0  0  0  0  0  0  0  0  0  0
    3.7973   -1.4851    0.0000 C   0  0  0  0  0  0  0  0  0  0  0  0
    5.1989   -2.0193    0.0000 C   0  0  0  0  0  0  0  0  0  0  0  0
    6.3624   -1.0725    0.0000 C   0  0  0  0  0  0  0  0  0  0  0  0
    7.7641   -1.6067    0.0000 O   0  0  0  0  0  0  0  0  0  0  0  0
    6.1242    0.4084    0.0000 C   0  0  0  0  0  0  0  0  0  0  0  0
    7.5740    0.0237    0.0000 C   0  0  0  0  0  0  0  0  0  0  0  0
    7.0654    1.5764    0.0000 C   0  0  0  0  0  0  0  0  0  0  0  0
    8.5636    1.5015    0.0000 C   0  0  0  0  0  0  0  0  0  0  0  0
    9.5048    2.6694    0.0000 C   0  0  0  0  0  0  0  0  0  0  0  0
   10.9064    2.1352    0.0000 C   0  0  0  0  0  0  0  0  0  0  0  0
   12.1625    2.9552    0.0000 O   0  0  0  0  0  0  0  0  0  0  0  0
   10.8315    0.6371    0.0000 O   0  0  0  0  0  0  0  0  0  0  0  0
    9.3835    0.2454    0.0000 C   0  0  0  0  0  0  0  0  0  0  0  0
    6.2455    2.8325    0.0000 C   0  0  0  0  0  0  0  0  0  0  0  0
    4.7975    2.4408    0.0000 C   0  0  0  0  0  0  0  0  0  0  0  0
    4.7226    0.9427    0.0000 C   0  0  0  0  0  0  0  0  0  0  0  0
    3.3845    1.6205    0.0000 O   0  0  0  0  0  0  0  0  0  0  0  0
    0.0687   -2.8444    0.0000 C   0  0  0  0  0  0  0  0  0  0  0  0
   -2.4964   -3.2569    0.0000 C   0  0  0  0  0  0  0  0  0  0  0  0
   -3.8980   -2.7227    0.0000 C   0  0  0  0  0  0  0  0  0  0  0  0
   -4.1362   -1.2417    0.0000 O   0  0  0  0  0  0  0  0  0  0  0  0
   -5.5379   -0.7075    0.0000 C   0  0  0  0  0  0  0  0  0  0  0  0
   -5.7761    0.7735    0.0000 C   0  0  0  0  0  0  0  0  0  0  0  0
   -4.6126    1.7202    0.0000 O   0  0  0  0  0  0  0  0  0  0  0  0
   -6.4906    5.2164    0.0000 C   0  0  0  0  0  0  0  0  0  0  0  0
   -5.3271    6.1631    0.0000 C   0  0  0  0  0  0  0  0  0  0  0  0
   -5.5653    7.6441    0.0000 O   0  0  0  0  0  0  0  0  0  0  0  0
   -3.9255    5.6289    0.0000 C   0  0  0  0  0  0  0  0  0  0  0  0
   -2.7620    6.5757    0.0000 O   0  0  0  0  0  0  0  0  0  0  0  0
  2  1  1  1
  2  3  1  0
  3  4  1  0
  4  5  1  1
  6  5  1  1
  6  7  1  0
  7  8  1  6
  7  9  1  0
  9 10  1  0
 10 11  1  6
 12 11  1  1
 12 13  1  0
 13 14  1  6
 13 15  1  0
 15 16  1  0
 16 17  1  6
 18 17  1  6
 18 19  1  0
 19 20  1  0
 20 21  1  0
 21 22  1  6
 21 23  1  0
 23 24  1  1
 24 25  1  0
 26 25  1  1
 26 27  1  0
 27 28  1  6
 28 29  1  0
 29 30  1  6
 29 31  1  0
 31 32  1  6
 31 33  1  0
 33 34  1  6
 34 35  2  0
 35 36  1  0
 36 37  2  0
 36 38  1  0
 38 39  1  0
 33 40  1  0
 40 41  1  0
 41 42  1  0
 42 43  1  6
 23 44  1  0
 16 45  1  0
 45 46  1  0
 46 47  1  1
 10 48  1  0
 48 49  1  0
 49 50  1  1
  4 51  1  0
 51 52  1  0
 52 53  1  6
 52 54  1  0
 54 55  1  6
 54  2  1  0
 49  6  1  0
 46 12  1  0
 44 18  1  0
 27 21  1  0
 42 31  1  0
 42 26  1  0
 39 34  1  0
M  END
>  <zinc_id>  (4) 
ZINC000242548690

>  <smiles>  (4) 
C[C@H]1O[C@@H](O[C@H]2[C@@H](O)C[C@H](O[C@H]3[C@@H](O)C[C@H](O[C@H]4CC[C@]5(C)[C@H]6C[C@@H](O)[C@]7(C)[C@@H](C8=CC(=O)OC8)CC[C@]7(O)[C@@H]6CC[C@@H]5C4)O[C@@H]3C)O[C@@H]2C)C[C@H](O)[C@@H]1O

$$$$

     RDKit          3D

 11 12  0  0  0  0  0  0  0  0999 V2000
   -2.0865    1.4545    1.0721 O   0  0  0  0  0  0  0  0  0  0  0  0
   -1.4627    0.4589    0.3006 C   0  0  0  0  0  0  0  0  0  0  0  0
   -2.2785   -0.3898   -0.4200 C   0  0  0  0  0  0  0  0  0  0  0  0
   -1.6413   -1.3621   -1.1720 C   0  0  0  0  0  0  0  0  0  0  0  0
   -0.2691   -1.4927   -1.2129 C   0  0  0  0  0  0  0  0  0  0  0  0
    0.5107   -0.6269   -0.4802 C   0  0  0  0  0  0  0  0  0  0  0  0
    1.8977   -0.7539   -0.5175 C   0  0  0  0  0  0  0  0  0  0  0  0
    2.6709    0.1127    0.2155 C   0  0  0  0  0  0  0  0  0  0  0  0
    2.0404    1.0790    0.9631 C   0  0  0  0  0  0  0  0  0  0  0  0
    0.7080    1.1669    0.9715 N   0  0  0  0  0  0  0  0  0  0  0  0
   -0.0894    0.3533    0.2800 C   0  0  0  0  0  0  0  0  0  0  0  0
  1  2  1  0
  2  3  2  0
  3  4  1  0
  4  5  2  0
  5  6  1  0
  6  7  2  0
  7  8  1  0
  8  9  2  0
  9 10  1  0
 10 11  2  0
 11  2  1  0
 11  6  1  0
M  END
>  <zinc_id>  (5) 
ZINC000000008492

>  <smiles>  (5) 
Oc1cccc2cccnc12

$$$$

     RDKit          3D

 27 30  0  0  0  0  0  0  0  0999 V2000
   -1.4431    2.5270   -0.5235 C   0  0  0  0  0  0  0  0  0  0  0  0
   -1.0283    1.7982    0.1348 O   0  0  0  0  0  0  0  0  0  0  0  0
   -0.5113    0.5089    0.0775 C   0  0  0  0  0  0  0  0  0  0  0  0
   -1.4433   -0.5512    0.1435 C   0  0  0  0  0  0  0  0  0  0  0  0
   -2.8189   -0.2542    0.2642 N   0  0  0  0  0  0  0  0  0  0  0  0
   -3.4519   -0.1098    1.5246 C   0  0  0  0  0  0  0  0  0  0  0  0
   -4.7879   -0.7944    1.5158 C   0  0  0  0  0  0  0  0  0  0  0  0
   -5.5735   -0.5415    0.3521 N   0  0  0  0  0  0  0  0  0  0  0  0
   -4.9144    0.7712   -0.3034 C   0  0  2  0  0  0  0  0  0  0  0  0
   -5.7943    0.5719   -1.7088 C   0  0  0  0  0  0  0  0  0  0  0  0
   -3.6328   -0.0884   -0.9091 C   0  0  0  0  0  0  0  0  0  0  0  0
   -1.0482   -1.8681    0.0937 C   0  0  0  0  0  0  0  0  0  0  0  0
   -1.9978   -2.8335    0.1621 F   0  0  0  0  0  0  0  0  0  0  0  0
    0.2871   -2.1667   -0.0231 C   0  0  0  0  0  0  0  0  0  0  0  0
    1.2097   -1.1305   -0.0872 C   0  0  0  0  0  0  0  0  0  0  0  0
    2.5417   -1.4691   -0.1906 C   0  0  0  0  0  0  0  0  0  0  0  0
    2.8646   -2.6953   -0.2358 O   0  0  0  0  0  0  0  0  0  0  0  0
    3.5268   -0.5068   -0.2457 C   0  0  0  0  0  0  0  0  0  0  0  0
    4.9389   -0.8780   -0.3562 C   0  0  0  0  0  0  0  0  0  0  0  0
    5.2443   -2.0985   -0.4006 O   0  0  0  0  0  0  0  0  0  0  0  0
    5.8603    0.1455   -0.4054 O   0  0  0  0  0  0  0  0  0  0  0  0
    3.1035    0.8008   -0.1910 C   0  0  0  0  0  0  0  0  0  0  0  0
    1.7801    1.1497   -0.0884 N   0  0  0  0  0  0  0  0  0  0  0  0
    1.4353    2.5563   -0.0011 C   0  0  0  0  0  0  0  0  0  0  0  0
    2.3807    3.5054   -0.7821 C   0  0  0  0  0  0  0  0  0  0  0  0
    2.4542    3.4297    0.7696 C   0  0  0  0  0  0  0  0  0  0  0  0
    0.8185    0.2214   -0.0366 C   0  0  0  0  0  0  0  0  0  0  0  0
  1  2  1  0
  2  3  1  0
  3  4  2  0
  4  5  1  0
  5  6  1  0
  6  7  1  0
  7  8  1  0
  8  9  1  0
  9 10  1  6
  9 11  1  0
  4 12  1  0
 12 13  1  0
 12 14  2  0
 14 15  1  0
 15 16  1  0
 16 17  2  0
 16 18  1  0
 18 19  1  0
 19 20  2  0
 19 21  1  0
 18 22  2  0
 22 23  1  0
 23 24  1  0
 24 25  1  0
 25 26  1  0
 23 27  1  0
 27  3  1  0
 11  5  1  0
 27 15  2  0
 26 24  1  0
M  END
>  <zinc_id>  (6) 
ZINC000003607120

>  <smiles>  (6) 
COc1c(N2CCN[C@H](C)C2)c(F)cc2c(=O)c(C(=O)O)cn(C3CC3)c12

$$$$

     RDKit          3D

 43 49  0  0  0  0  0  0  0  0999 V2000
   -1.0164   -4.3368    0.0572 C   0  0  0  0  0  0  0  0  0  0  0  0
   -0.8216   -3.5556    0.6085 C   0  0  0  0  0  0  0  0  0  0  0  0
   -1.0399   -2.1316    0.2268 C   0  0  0  0  0  0  0  0  0  0  0  0
   -2.3155   -1.5933    0.2515 C   0  0  0  0  0  0  0  0  0  0  0  0
   -2.5449   -0.2859   -0.1047 C   0  0  0  0  0  0  0  0  0  0  0  0
   -1.4969    0.4641   -0.4797 N   0  0  0  0  0  0  0  0  0  0  0  0
   -0.2317    0.0090   -0.5275 C   0  0  0  0  0  0  0  0  0  0  0  0
    0.8296    0.7794   -0.9083 C   0  0  0  0  0  0  0  0  0  0  0  0
    2.1189    0.3036   -0.9509 C   0  0  0  0  0  0  0  0  0  0  0  0
    2.3661   -1.0329   -0.5878 C   0  0  0  0  0  0  0  0  0  0  0  0
    3.6696   -1.5171   -0.6278 O   0  0  0  0  0  0  0  0  0  0  0  0
    4.4916   -1.3016    0.4887 C   0  0  0  0  0  0  0  0  0  0  0  0
    3.9665   -0.6825    1.4516 O   0  0  0  0  0  0  0  0  0  0  0  0
    5.8245   -1.7458    0.5390 N   0  0  0  0  0  0  0  0  0  0  0  0
    6.6276   -1.4851    1.7041 C   0  0  0  0  0  0  0  0  0  0  0  0
    7.9491   -0.7994    1.3006 C   0  0  0  0  0  0  0  0  0  0  0  0
    7.8908   -0.5575   -0.1459 C   0  0  0  0  0  0  0  0  0  0  0  0
    8.2375    0.6923   -0.6677 N   0  0  0  0  0  0  0  0  0  0  0  0
    7.3340    1.7253   -0.1760 C   0  0  0  0  0  0  0  0  0  0  0  0
    7.7383    3.1094   -0.5849 C   0  0  0  0  0  0  0  0  0  0  0  0
    9.1524    3.4292   -0.1495 C   0  0  0  0  0  0  0  0  0  0  0  0
    9.7140    2.1929    0.5221 C   0  0  0  0  0  0  0  0  0  0  0  0
    9.6108    1.0402   -0.4623 C   0  0  0  0  0  0  0  0  0  0  0  0
    7.6691   -1.6998   -1.0407 C   0  0  0  0  0  0  0  0  0  0  0  0
    6.4141   -2.4552   -0.5655 C   0  0  0  0  0  0  0  0  0  0  0  0
    1.2906   -1.8013   -0.2059 C   0  0  0  0  0  0  0  0  0  0  0  0
    0.0002   -1.3030   -0.1704 C   0  0  0  0  0  0  0  0  0  0  0  0
   -3.9764   -0.0015    0.0284 C   0  0  0  0  0  0  0  0  0  0  0  0
   -4.7481    1.1149   -0.1794 C   0  0  0  0  0  0  0  0  0  0  0  0
   -6.1189    1.1528    0.0296 C   0  0  0  0  0  0  0  0  0  0  0  0
   -6.7157    0.0194    0.4627 C   0  0  0  0  0  0  0  0  0  0  0  0
   -5.9394   -1.1252    0.6770 C   0  0  0  0  0  0  0  0  0  0  0  0
   -6.4708   -2.1939    1.0797 O   0  0  0  0  0  0  0  0  0  0  0  0
   -4.6063   -1.1102    0.4580 N   0  0  0  0  0  0  0  0  0  0  0  0
   -3.6292   -2.1708    0.6132 C   0  0  0  0  0  0  0  0  0  0  0  0
   -8.1704   -0.0519    0.7302 C   0  0  0  0  0  0  0  0  0  0  0  0
   -8.8665    1.0175    0.1388 O   0  0  0  0  0  0  0  0  0  0  0  0
   -8.2711    2.0211   -0.5855 C   0  0  0  0  0  0  0  0  0  0  0  0
   -8.8287    2.6284   -1.5326 O   0  0  0  0  0  0  0  0  0  0  0  0
   -6.8909    2.3982   -0.2173 C   0  0  1  0  0  0  0  0  0  0  0  0
   -6.9544    3.1133    0.9898 O   0  0  0  0  0  0  0  0  0  0  0  0
   -6.2330    3.2328   -1.3025 C   0  0  0  0  0  0  0  0  0  0  0  0
   -7.0085    4.4942   -1.5616 C   0  0  0  0  0  0  0  0  0  0  0  0
  1  2  1  0
  2  3  1  0
  3  4  2  0
  4  5  1  0
  5  6  2  0
  6  7  1  0
  7  8  2  0
  8  9  1  0
  9 10  2  0
 10 11  1  0
 11 12  1  0
 12 13  2  0
 12 14  1  0
 14 15  1  0
 15 16  1  0
 16 17  1  0
 17 18  1  0
 18 19  1  0
 19 20  1  0
 20 21  1  0
 21 22  1  0
 22 23  1  0
 17 24  1  0
 24 25  1  0
 10 26  1  0
 26 27  2  0
  5 28  1  0
 28 29  2  0
 29 30  1  0
 30 31  2  0
 31 32  1  0
 32 33  2  0
 32 34  1  0
 34 35  1  0
 31 36  1  0
 36 37  1  0
 37 38  1  0
 38 39  2  0
 38 40  1  0
 40 41  1  1
 40 42  1  0
 42 43  1  0
 27  3  1  0
 34 28  1  0
 35  4  1  0
 27  7  1  0
 40 30  1  0
 25 14  1  0
 23 18  1  0
M  END
>  <zinc_id>  (7) 
ZINC000001612996

>  <smiles>  (7) 
CCc1c2c(nc3ccc(OC(=O)N4CCC(N5CCCCC5)CC4)cc13)-c1cc3c(c(=O)n1C2)COC(=O)[C@]3(O)CC

$$$$

     RDKit          3D

 39 43  0  0  0  0  0  0  0  0999 V2000
   -2.8421   -5.6300   -2.1369 C   0  0  0  0  0  0  0  0  0  0  0  0
   -3.0709   -4.6881   -1.5535 O   0  0  0  0  0  0  0  0  0  0  0  0
   -3.9990   -3.9365   -0.9010 C   0  0  0  0  0  0  0  0  0  0  0  0
   -5.3397   -4.2994   -0.7674 C   0  0  0  0  0  0  0  0  0  0  0  0
   -6.1812   -3.4661   -0.0909 C   0  0  0  0  0  0  0  0  0  0  0  0
   -5.7544   -2.2795    0.4647 C   0  0  0  0  0  0  0  0  0  0  0  0
   -4.4470   -1.9007    0.3484 C   0  0  0  0  0  0  0  0  0  0  0  0
   -3.5715   -2.7480   -0.3445 C   0  0  0  0  0  0  0  0  0  0  0  0
   -2.1592   -2.3831   -0.4949 C   0  0  0  0  0  0  0  0  0  0  0  0
   -1.3442   -3.1154   -1.1083 O   0  0  0  0  0  0  0  0  0  0  0  0
   -1.6360   -1.1613    0.0562 C   0  0  0  0  0  0  0  0  0  0  0  0
   -0.2679   -0.8403   -0.1076 C   0  0  0  0  0  0  0  0  0  0  0  0
    0.5806   -1.6780   -0.7883 O   0  0  0  0  0  0  0  0  0  0  0  0
    0.2132    0.2879    0.4017 C   0  0  0  0  0  0  0  0  0  0  0  0
   -0.6353    1.1182    1.0782 C   0  0  0  0  0  0  0  0  0  0  0  0
   -1.9952    0.8293    1.2579 C   0  0  0  0  0  0  0  0  0  0  0  0
   -2.8760    1.6553    1.9401 O   0  0  0  0  0  0  0  0  0  0  0  0
   -2.5087   -0.3411    0.7331 C   0  0  0  0  0  0  0  0  0  0  0  0
   -3.9286   -0.6592    0.9116 C   0  0  0  0  0  0  0  0  0  0  0  0
   -4.6951    0.1241    1.5413 O   0  0  0  0  0  0  0  0  0  0  0  0
   -0.1673    2.3494    1.6459 C   0  0  0  0  0  0  0  0  0  0  0  0
    0.6265    3.0660    0.5910 C   0  0  1  0  0  0  0  0  0  0  0  0
   -0.2748    3.8591   -0.1247 O   0  0  0  0  0  0  0  0  0  0  0  0
    1.4919    3.9522    1.4255 C   0  0  0  0  0  0  0  0  0  0  0  0
    2.3580    3.4678    2.1383 O   0  0  0  0  0  0  0  0  0  0  0  0
    1.3954    5.4370    1.4737 C   0  0  0  0  0  0  0  0  0  0  0  0
    0.4102    5.9777    0.6621 O   0  0  0  0  0  0  0  0  0  0  0  0
    1.3296    2.2351   -0.3745 C   0  0  0  0  0  0  0  0  0  0  0  0
    1.6980    0.7638    0.2976 C   0  0  2  0  0  0  0  0  0  0  0  0
    2.1196    0.1905   -1.0448 O   0  0  0  0  0  0  0  0  0  0  0  0
    3.4957    0.8158   -0.7845 C   0  0  1  0  0  0  0  0  0  0  0  0
    4.0373   -0.4581    0.1144 C   0  0  0  0  0  0  0  0  0  0  0  0
    5.3878   -0.9438   -0.6006 C   0  0  2  0  0  0  0  0  0  0  0  0
    6.1696   -1.3042    0.6917 N   0  0  0  0  0  0  0  0  0  0  0  0
    6.2322    0.5001   -0.8189 C   0  0  2  0  0  0  0  0  0  0  0  0
    5.7056    1.3368    0.2596 O   0  0  0  0  0  0  0  0  0  0  0  0
    5.3910    1.0188   -2.1895 C   0  0  2  0  0  0  0  0  0  0  0  0
    4.9669    2.5176   -1.7318 C   0  0  0  0  0  0  0  0  0  0  0  0
    4.0849    0.3304   -2.0707 O   0  0  0  0  0  0  0  0  0  0  0  0
  1  2  1  0
  2  3  1  0
  3  4  2  0
  4  5  1  0
  5  6  2  0
  6  7  1  0
  7  8  2  0
  8  9  1  0
  9 10  2  0
  9 11  1  0
 11 12  2  0
 12 13  1  0
 12 14  1  0
 14 15  2  0
 15 16  1  0
 16 17  1  0
 16 18  2  0
 18 19  1  0
 19 20  2  0
 15 21  1  0
 21 22  1  0
 22 23  1  6
 22 24  1  0
 24 25  2  0
 24 26  1  0
 26 27  1  0
 22 28  1  0
 28 29  1  0
 29 30  1  6
 31 30  1  6
 31 32  1  0
 32 33  1  0
 33 34  1  1
 33 35  1  0
 35 36  1  1
 35 37  1  0
 37 38  1  1
 37 39  1  0
  8  3  1  0
 18 11  1  0
 39 31  1  0
 19  7  1  0
 29 14  1  0
M  END
>  <zinc_id>  (8) 
ZINC000003918087

>  <smiles>  (8) 
COc1cccc2c1C(=O)c1c(O)c3c(c(O)c1C2=O)C[C@@](O)(C(=O)CO)C[C@@H]3O[C@H]1C[C@H](N)[C@H](O)[C@H](C)O1

$$$$

     RDKit          3D

 19 19  0  0  0  0  0  0  0  0999 V2000
    2.7444    1.1266    1.2260 N   0  0  0  0  0  0  0  0  0  0  0  0
    3.5300   -0.1826    0.7937 C   0  0  1  0  0  0  0  0  0  0  0  0
    2.8313   -0.2485   -0.7157 C   0  0  0  0  0  0  0  0  0  0  0  0
    1.3904   -0.3697   -0.4831 C   0  0  0  0  0  0  0  0  0  0  0  0
    0.7100   -1.5521   -0.3472 C   0  0  0  0  0  0  0  0  0  0  0  0
   -0.6500   -1.5305   -0.1346 C   0  0  0  0  0  0  0  0  0  0  0  0
   -1.3793   -0.3509   -0.0492 C   0  0  0  0  0  0  0  0  0  0  0  0
   -2.7706   -0.4515    0.1711 N   0  0  0  0  0  0  0  0  0  0  0  0
   -3.6607    0.6716    0.2857 C   0  0  0  0  0  0  0  0  0  0  0  0
   -3.0452    2.0131    0.1599 C   0  0  0  0  0  0  0  0  0  0  0  0
   -4.2487    3.2864    0.3222 Cl  0  0  0  0  0  0  0  0  0  0  0  0
   -3.3508   -1.7745    0.2912 C   0  0  0  0  0  0  0  0  0  0  0  0
   -4.2473   -2.1520   -0.8361 C   0  0  0  0  0  0  0  0  0  0  0  0
   -3.4545   -2.1590   -2.4122 Cl  0  0  0  0  0  0  0  0  0  0  0  0
   -0.6990    0.8276   -0.1850 C   0  0  0  0  0  0  0  0  0  0  0  0
    0.6557    0.7952   -0.3968 C   0  0  0  0  0  0  0  0  0  0  0  0
    4.8566    0.5749    0.2835 C   0  0  0  0  0  0  0  0  0  0  0  0
    4.9679    1.7744    0.3404 O   0  0  0  0  0  0  0  0  0  0  0  0
    5.8199   -0.2985   -0.2116 O   0  0  0  0  0  0  0  0  0  0  0  0
  2  1  1  1
  2  3  1  0
  3  4  1  0
  4  5  2  0
  5  6  1  0
  6  7  2  0
  7  8  1  0
  8  9  1  0
  9 10  1  0
 10 11  1  0
  8 12  1  0
 12 13  1  0
 13 14  1  0
  7 15  1  0
 15 16  2  0
  2 17  1  0
 17 18  2  0
 17 19  1  0
 16  4  1  0
M  END
>  <zinc_id>  (9) 
ZINC000000001673

>  <smiles>  (9) 
N[C@@H](Cc1ccc(N(CCCl)CCCl)cc1)C(=O)O

$$$$

     RDKit          3D

  9  9  0  0  0  0  0  0  0  0999 V2000
    2.0110   -1.3598    0.3468 N   0  0  0  0  0  0  0  0  0  0  0  0
    0.8472   -0.5776    0.1474 C   0  0  0  0  0  0  0  0  0  0  0  0
   -0.3855   -1.1333    0.2987 N   0  0  0  0  0  0  0  0  0  0  0  0
   -1.5045   -0.4109    0.1147 C   0  0  0  0  0  0  0  0  0  0  0  0
   -2.6446   -0.9362    0.2577 O   0  0  0  0  0  0  0  0  0  0  0  0
   -1.3709    0.8829   -0.2249 N   0  0  0  0  0  0  0  0  0  0  0  0
   -0.1672    1.4764   -0.3860 C   0  0  0  0  0  0  0  0  0  0  0  0
    0.9931    0.7499   -0.2011 C   0  0  0  0  0  0  0  0  0  0  0  0
    2.2214    1.3086   -0.3532 F   0  0  0  0  0  0  0  0  0  0  0  0
  1  2  1  0
  2  3  2  0
  3  4  1  0
  4  5  2  0
  4  6  1  0
  6  7  1  0
  7  8  2  0
  8  9  1  0
  8  2  1  0
M  END
>  <zinc_id>  (10) 
ZINC000000896546

>  <smiles>  (10) 
Nc1nc(=O)[nH]cc1F

$$$$

     RDKit          3D

 23 25  0  0  0  0  0  0  0  0999 V2000
   -0.0732   -2.9935   -0.0573 C   0  0  0  0  0  0  0  0  0  0  0  0
   -0.8367   -1.7919   -0.2339 N   0  0  0  0  0  0  0  0  0  0  0  0
   -0.2476   -0.4968   -0.1732 C   0  0  0  0  0  0  0  0  0  0  0  0
    1.2007   -0.4853    0.0846 C   0  0  0  0  0  0  0  0  0  0  0  0
    1.8249   -1.5389    0.2317 O   0  0  0  0  0  0  0  0  0  0  0  0
    1.8778    0.7456    0.1632 N   0  0  0  0  0  0  0  0  0  0  0  0
    3.2772    0.8387    0.4094 C   0  0  0  0  0  0  0  0  0  0  0  0
    3.8953    2.0524    0.4782 C   0  0  0  0  0  0  0  0  0  0  0  0
    5.2588    2.1211    0.7188 C   0  0  0  0  0  0  0  0  0  0  0  0
    5.9958    0.9541    0.8899 C   0  0  0  0  0  0  0  0  0  0  0  0
    5.3388   -0.2530    0.8140 C   0  0  0  0  0  0  0  0  0  0  0  0
    4.0238   -0.2623    0.5800 N   0  0  0  0  0  0  0  0  0  0  0  0
   -0.9007    0.6346   -0.3282 C   0  0  0  0  0  0  0  0  0  0  0  0
   -0.1302    1.8213   -0.2314 O   0  0  0  0  0  0  0  0  0  0  0  0
   -2.3187    0.7808   -0.5858 C   0  0  0  0  0  0  0  0  0  0  0  0
   -2.8656    2.0653   -0.7274 C   0  0  0  0  0  0  0  0  0  0  0  0
   -4.1926    2.2372   -0.9698 C   0  0  0  0  0  0  0  0  0  0  0  0
   -5.0326    1.1562   -1.0826 C   0  0  0  0  0  0  0  0  0  0  0  0
   -4.4711   -0.0909   -0.9397 C   0  0  0  0  0  0  0  0  0  0  0  0
   -3.1453   -0.2966   -0.6963 C   0  0  0  0  0  0  0  0  0  0  0  0
   -2.5206   -1.9081   -0.5296 S   0  0  0  0  0  0  0  0  0  0  0  0
   -3.1353   -2.6056    0.6632 O   0  0  0  0  0  0  0  0  0  0  0  0
   -2.8227   -2.6844   -1.7788 O   0  0  0  0  0  0  0  0  0  0  0  0
  1  2  1  0
  2  3  1  0
  3  4  1  0
  4  5  2  0
  4  6  1  0
  6  7  1  0
  7  8  2  0
  8  9  1  0
  9 10  2  0
 10 11  1  0
 11 12  2  0
  3 13  2  0
 13 14  1  0
 13 15  1  0
 15 16  2  0
 16 17  1  0
 17 18  2  0
 18 19  1  0
 19 20  2  0
 20 21  1  0
 21 22  2  0
 21 23  2  0
 21  2  1  0
 12  7  1  0
 20 15  1  0
M  END
>  <zinc_id>  (11) 
ZINC000051133897

>  <smiles>  (11) 
CN1C(C(=O)Nc2ccccn2)=C(O)c2ccccc2S1(=O)=O

$$$$

     RDKit          3D

 10 11  0  0  0  0  0  0  0  0999 V2000
   -1.8096    2.1441   -0.3307 S   0  0  0  0  0  0  0  0  0  0  0  0
   -1.1858    0.6354   -0.1358 C   0  0  0  0  0  0  0  0  0  0  0  0
   -1.9599   -0.4462   -0.0671 N   0  0  0  0  0  0  0  0  0  0  0  0
   -1.4342   -1.6557    0.0907 C   0  0  0  0  0  0  0  0  0  0  0  0
   -0.1143   -1.8157    0.1843 N   0  0  0  0  0  0  0  0  0  0  0  0
    0.7337   -0.7683    0.1235 C   0  0  0  0  0  0  0  0  0  0  0  0
    2.0539   -0.6038    0.1829 N   0  0  0  0  0  0  0  0  0  0  0  0
    2.3391    0.6828    0.0643 C   0  0  0  0  0  0  0  0  0  0  0  0
    1.1960    1.3518   -0.0726 N   0  0  0  0  0  0  0  0  0  0  0  0
    0.1810    0.4757   -0.0395 C   0  0  0  0  0  0  0  0  0  0  0  0
  1  2  2  0
  2  3  1  0
  3  4  1  0
  4  5  2  0
  5  6  1  0
  6  7  1  0
  7  8  2  0
  8  9  1  0
  9 10  1  0
 10  2  1  0
 10  6  2  0
M  END
>  <zinc_id>  (12) 
ZINC000004658290

>  <smiles>  (12) 
S=c1[nH]cnc2nc[nH]c12

$$$$

     RDKit          3D

 33 35  0  0  0  0  0  0  0  0999 V2000
   -1.7082    0.1377   -1.7035 C   0  0  0  0  0  0  0  0  0  0  0  0
   -1.4028   -0.3475   -0.9354 N   0  0  0  0  0  0  0  0  0  0  0  0
   -2.2572   -1.2612   -0.1951 C   0  0  0  0  0  0  0  0  0  0  0  0
   -3.5190   -0.6383    0.1391 C   0  0  0  0  0  0  0  0  0  0  0  0
   -3.6455    0.2545    1.1668 C   0  0  0  0  0  0  0  0  0  0  0  0
   -4.8444    0.8161    1.4667 N   0  0  0  0  0  0  0  0  0  0  0  0
   -5.9367    0.5143    0.7692 C   0  0  0  0  0  0  0  0  0  0  0  0
   -7.1624    1.0448    1.0652 N   0  0  0  0  0  0  0  0  0  0  0  0
   -8.2638    0.7358    0.3983 C   0  0  0  0  0  0  0  0  0  0  0  0
   -9.5530    1.3030    0.7140 N   0  0  0  0  0  0  0  0  0  0  0  0
   -8.2029   -0.1450   -0.6332 N   0  0  0  0  0  0  0  0  0  0  0  0
   -6.9928   -0.6886   -0.9509 C   0  0  0  0  0  0  0  0  0  0  0  0
   -6.9135   -1.6119   -2.0251 N   0  0  0  0  0  0  0  0  0  0  0  0
   -5.8310   -0.3898   -0.2793 C   0  0  0  0  0  0  0  0  0  0  0  0
   -4.6362   -0.9244   -0.5492 N   0  0  0  0  0  0  0  0  0  0  0  0
   -0.0479   -0.2551   -0.4280 C   0  0  0  0  0  0  0  0  0  0  0  0
    0.2723    0.6054    0.5909 C   0  0  0  0  0  0  0  0  0  0  0  0
    1.5722    0.6806    1.0290 C   0  0  0  0  0  0  0  0  0  0  0  0
    2.5712   -0.0797    0.4811 C   0  0  0  0  0  0  0  0  0  0  0  0
    3.9072    0.0732    0.9781 C   0  0  0  0  0  0  0  0  0  0  0  0
    4.1969   -0.3244    2.1306 O   0  0  0  0  0  0  0  0  0  0  0  0
    4.8899    0.6910    0.1500 N   0  0  0  0  0  0  0  0  0  0  0  0
    6.3103    0.8243    0.8409 C   0  0  1  0  0  0  0  0  0  0  0  0
    7.0963    0.4292   -0.6005 C   0  0  0  0  0  0  0  0  0  0  0  0
    6.5827   -0.9355   -0.9203 C   0  0  0  0  0  0  0  0  0  0  0  0
    6.8755   -1.9549    0.1176 C   0  0  0  0  0  0  0  0  0  0  0  0
    7.4793   -1.7820    1.1851 O   0  0  0  0  0  0  0  0  0  0  0  0
    6.4121   -3.2434   -0.1658 O   0  0  0  0  0  0  0  0  0  0  0  0
    6.4372    2.3947    0.6145 C   0  0  0  0  0  0  0  0  0  0  0  0
    5.7627    2.9954   -0.2078 O   0  0  0  0  0  0  0  0  0  0  0  0
    7.3376    3.0376    1.4050 O   0  0  0  0  0  0  0  0  0  0  0  0
    2.2600   -0.9376   -0.5270 C   0  0  0  0  0  0  0  0  0  0  0  0
    0.9542   -1.0182   -0.9730 C   0  0  0  0  0  0  0  0  0  0  0  0
  1  2  1  0
  2  3  1  0
  3  4  1  0
  4  5  2  0
  5  6  1  0
  6  7  2  0
  7  8  1  0
  8  9  2  0
  9 10  1  0
  9 11  1  0
 11 12  2  0
 12 13  1  0
 12 14  1  0
 14 15  2  0
  2 16  1  0
 16 17  2  0
 17 18  1  0
 18 19  2  0
 19 20  1  0
 20 21  2  0
 20 22  1  0
 22 23  1  0
 23 24  1  6
 24 25  1  0
 25 26  1  0
 26 27  2  0
 26 28  1  0
 23 29  1  0
 29 30  2  0
 29 31  1  0
 19 32  1  0
 32 33  2  0
 15  4  1  0
 33 16  1  0
 14  7  1  0
M  END
>  <zinc_id>  (13) 
ZINC000001529323

>  <smiles>  (13) 
CN(Cc1cnc2nc(N)nc(N)c2n1)c1ccc(C(=O)N[C@@H](CCC(=O)O)C(=O)O)cc1

$$$$

     RDKit          3D

 28 31  0  0  0  0  0  0  0  0999 V2000
   -4.4548   -4.5857   -0.7223 C   0  0  0  0  0  0  0  0  0  0  0  0
   -5.1035   -3.3295   -0.6297 O   0  0  0  0  0  0  0  0  0  0  0  0
   -4.3300   -2.1732   -0.6583 C   0  0  0  0  0  0  0  0  0  0  0  0
   -2.9483   -2.2329   -0.7749 C   0  0  0  0  0  0  0  0  0  0  0  0
   -2.2095   -1.0496   -0.7998 C   0  0  0  0  0  0  0  0  0  0  0  0
   -0.8668   -1.0866   -0.9127 N   0  0  0  0  0  0  0  0  0  0  0  0
   -0.1111    0.0160   -0.9416 C   0  0  0  0  0  0  0  0  0  0  0  0
    1.3159   -0.0444   -1.0628 N   0  0  0  0  0  0  0  0  0  0  0  0
    2.0108   -1.3111   -1.1576 C   0  0  0  0  0  0  0  0  0  0  0  0
    3.0533   -1.4347   -0.0502 C   0  0  0  0  0  0  0  0  0  0  0  0
    3.6173   -0.1197    0.2302 N   0  0  0  0  0  0  0  0  0  0  0  0
    4.2812    0.0644    1.4577 C   0  0  0  0  0  0  0  0  0  0  0  0
    4.4028   -0.8592    2.3131 O   0  0  0  0  0  0  0  0  0  0  0  0
    4.8531    1.3715    1.7592 C   0  0  0  0  0  0  0  0  0  0  0  0
    5.5345    1.7256    2.9082 C   0  0  0  0  0  0  0  0  0  0  0  0
    5.8856    3.0392    2.7576 C   0  0  0  0  0  0  0  0  0  0  0  0
    5.4133    3.4505    1.5299 C   0  0  0  0  0  0  0  0  0  0  0  0
    4.8196    2.4200    1.0027 O   0  0  0  0  0  0  0  0  0  0  0  0
    3.5015    0.9532   -0.7122 C   0  0  0  0  0  0  0  0  0  0  0  0
    2.0749    1.1732   -1.0920 C   0  0  0  0  0  0  0  0  0  0  0  0
   -0.7183    1.2088   -0.8544 N   0  0  0  0  0  0  0  0  0  0  0  0
   -2.0546    1.3266   -0.7396 C   0  0  0  0  0  0  0  0  0  0  0  0
   -2.6383    2.6315   -0.6509 N   0  0  0  0  0  0  0  0  0  0  0  0
   -2.8243    0.1830   -0.7108 C   0  0  0  0  0  0  0  0  0  0  0  0
   -4.1978    0.2531   -0.5946 C   0  0  0  0  0  0  0  0  0  0  0  0
   -4.9171   -0.9275   -0.5712 C   0  0  0  0  0  0  0  0  0  0  0  0
   -6.3195   -0.9169   -0.4544 O   0  0  0  0  0  0  0  0  0  0  0  0
   -7.0699    0.2543   -0.3560 C   0  0  0  0  0  0  0  0  0  0  0  0
  1  2  1  0
  2  3  1  0
  3  4  2  0
  4  5  1  0
  5  6  2  0
  6  7  1  0
  7  8  1  0
  8  9  1  0
  9 10  1  0
 10 11  1  0
 11 12  1  0
 12 13  2  0
 12 14  1  0
 14 15  2  0
 15 16  1  0
 16 17  2  0
 17 18  1  0
 11 19  1  0
 19 20  1  0
  7 21  2  0
 21 22  1  0
 22 23  1  0
 22 24  2  0
 24 25  1  0
 25 26  2  0
 26 27  1  0
 27 28  1  0
 26  3  1  0
 24  5  1  0
 20  8  1  0
 18 14  1  0
M  END
>  <zinc_id>  (14) 
ZINC000095616601

>  <smiles>  (14) 
COc1cc2nc(N3CCN(C(=O)c4ccco4)CC3)nc(N)c2cc1OC

$$$$

     RDKit          3D

 25 27  0  0  0  0  0  0  0  0999 V2000
   -0.3697    4.6058   -0.3572 C   0  0  0  0  0  0  0  0  0  0  0  0
    0.1742    3.2729   -0.2479 N   0  0  0  0  0  0  0  0  0  0  0  0
    1.3820    3.0270   -0.7597 C   0  0  0  0  0  0  0  0  0  0  0  0
    2.0479    3.9353   -1.3324 O   0  0  0  0  0  0  0  0  0  0  0  0
    1.8932    1.7693   -0.6548 C   0  0  0  0  0  0  0  0  0  0  0  0
    1.1252    0.8109   -0.0191 C   0  0  0  0  0  0  0  0  0  0  0  0
    1.7366   -0.4717    0.0810 N   0  0  0  0  0  0  0  0  0  0  0  0
    2.3819   -0.7476    1.3444 C   0  0  0  0  0  0  0  0  0  0  0  0
    3.5834   -1.6413    1.1930 C   0  0  0  0  0  0  0  0  0  0  0  0
    3.1375   -2.7657    0.2448 C   0  0  0  0  0  0  0  0  0  0  0  0
    3.2588   -1.9199   -1.1703 C   0  0  1  0  0  0  0  0  0  0  0  0
    2.7611   -3.1676   -2.0465 N   0  0  0  0  0  0  0  0  0  0  0  0
    1.6915   -1.3434   -1.0351 C   0  0  0  0  0  0  0  0  0  0  0  0
   -0.0924    1.0609    0.4951 N   0  0  0  0  0  0  0  0  0  0  0  0
   -0.9076    0.0808    1.1483 C   0  0  0  0  0  0  0  0  0  0  0  0
   -1.8591   -0.5775    0.2191 C   0  0  0  0  0  0  0  0  0  0  0  0
   -1.9690   -0.2288   -1.1299 C   0  0  0  0  0  0  0  0  0  0  0  0
   -2.8828   -0.8848   -1.9240 C   0  0  0  0  0  0  0  0  0  0  0  0
   -3.6617   -1.8622   -1.3708 C   0  0  0  0  0  0  0  0  0  0  0  0
   -3.5606   -2.2113   -0.0470 C   0  0  0  0  0  0  0  0  0  0  0  0
   -2.6550   -1.5679    0.7589 C   0  0  0  0  0  0  0  0  0  0  0  0
   -2.5287   -1.9063    2.1419 C   0  0  0  0  0  0  0  0  0  0  0  0
   -2.4455   -2.1897    3.2716 N   0  0  0  0  0  0  0  0  0  0  0  0
   -0.5523    2.3348    0.3615 C   0  0  0  0  0  0  0  0  0  0  0  0
   -1.6890    2.5880    0.8355 O   0  0  0  0  0  0  0  0  0  0  0  0
  1  2  1  0
  2  3  1  0
  3  4  2  0
  3  5  1  0
  5  6  2  0
  6  7  1  0
  7  8  1  0
  8  9  1  0
  9 10  1  0
 10 11  1  0
 11 12  1  6
 11 13  1  0
  6 14  1  0
 14 15  1  0
 15 16  1  0
 16 17  2  0
 17 18  1  0
 18 19  2  0
 19 20  1  0
 20 21  2  0
 21 22  1  0
 22 23  3  0
 14 24  1  0
 24 25  2  0
 24  2  1  0
 13  7  1  0
 21 16  1  0
M  END
>  <zinc_id>  (15) 
ZINC000014961096

>  <smiles>  (15) 
Cn1c(=O)cc(N2CCC[C@@H](N)C2)n(Cc2ccccc2C#N)c1=O

$$$$

     RDKit          3D

 21 21  0  0  0  0  0  0  0  0999 V2000
   -6.0190   -2.1991   -0.0073 C   0  0  0  0  0  0  0  0  0  0  0  0
   -6.0447   -1.7604   -0.1465 C   0  0  0  0  0  0  0  0  0  0  0  0
   -6.2584   -0.2930    0.1676 C   0  0  0  0  0  0  0  0  0  0  0  0
   -5.2463    0.2043    1.1434 C   0  0  0  0  0  0  0  0  0  0  0  0
   -3.7762   -0.0182    0.4366 C   0  0  1  0  0  0  0  0  0  0  0  0
   -4.1411    0.9460   -0.8379 C   0  0  0  0  0  0  0  0  0  0  0  0
   -2.8449    0.8713   -1.6549 C   0  0  0  0  0  0  0  0  0  0  0  0
   -3.0833    1.1928    1.2938 C   0  0  0  0  0  0  0  0  0  0  0  0
   -1.7484    1.2492    0.8859 O   0  0  0  0  0  0  0  0  0  0  0  0
   -0.8398    0.2224    0.9988 C   0  0  0  0  0  0  0  0  0  0  0  0
   -1.2138   -0.8636    1.5054 O   0  0  0  0  0  0  0  0  0  0  0  0
    0.5045    0.4930    0.5096 C   0  0  0  0  0  0  0  0  0  0  0  0
    1.4972   -0.3414    0.5275 C   0  0  0  0  0  0  0  0  0  0  0  0
    2.8361   -0.0516    0.0328 C   0  0  0  0  0  0  0  0  0  0  0  0
    3.2346    1.1382   -0.5190 C   0  0  0  0  0  0  0  0  0  0  0  0
    4.5218    1.3057   -0.9538 C   0  0  0  0  0  0  0  0  0  0  0  0
    5.4360    0.2665   -0.8380 C   0  0  0  0  0  0  0  0  0  0  0  0
    6.7440    0.3816   -1.2597 O   0  0  0  0  0  0  0  0  0  0  0  0
    7.6570   -0.6634   -1.1414 C   0  0  0  0  0  0  0  0  0  0  0  0
    5.0308   -0.9258   -0.2833 C   0  0  0  0  0  0  0  0  0  0  0  0
    3.7539   -1.0709    0.1403 C   0  0  0  0  0  0  0  0  0  0  0  0
  1  2  1  0
  2  3  1  0
  3  4  1  0
  5  4  1  1
  5  6  1  0
  6  7  1  0
  5  8  1  0
  8  9  1  0
  9 10  1  0
 10 11  2  0
 10 12  1  0
 12 13  2  0
 13 14  1  0
 14 15  2  0
 15 16  1  0
 16 17  2  0
 17 18  1  0
 18 19  1  0
 17 20  1  0
 20 21  2  0
 21 14  1  0
M  END
>  <zinc_id>  (16) 
ZINC000001633887

>  <smiles>  (16) 
CCCC[C@@H](CC)COC(=O)/C=C/c1ccc(OC)cc1

$$$$

     RDKit          3D

 33 35  0  0  0  0  0  0  0  0999 V2000
   -3.1156   -2.9125    0.9748 C   0  0  0  0  0  0  0  0  0  0  0  0
   -3.7136   -1.6505    0.6181 N   0  0  0  0  0  0  0  0  0  0  0  0
   -5.0454   -1.4714    0.6051 C   0  0  0  0  0  0  0  0  0  0  0  0
   -5.6778   -0.3498    0.1096 C   0  0  0  0  0  0  0  0  0  0  0  0
   -7.0048   -0.1726    0.0978 N   0  0  0  0  0  0  0  0  0  0  0  0
   -7.7932   -1.1593    0.6062 C   0  0  0  0  0  0  0  0  0  0  0  0
   -9.2018   -0.9886    0.6032 N   0  0  0  0  0  0  0  0  0  0  0  0
   -7.2222   -2.2650    1.0984 N   0  0  0  0  0  0  0  0  0  0  0  0
   -5.8823   -2.4626    1.1195 C   0  0  0  0  0  0  0  0  0  0  0  0
   -5.3541   -3.5202    1.5936 O   0  0  0  0  0  0  0  0  0  0  0  0
   -4.7225    0.6109   -0.3992 N   0  0  0  0  0  0  0  0  0  0  0  0
   -3.5511    0.7948    0.3896 C   0  0  0  0  0  0  0  0  0  0  0  0
   -2.6368   -0.5698    0.2625 C   0  0  2  0  0  0  0  0  0  0  0  0
   -2.8591   -0.7407   -1.3981 C   0  0  0  0  0  0  0  0  0  0  0  0
   -1.9552    0.2050   -1.9544 N   0  0  0  0  0  0  0  0  0  0  0  0
   -0.5706    0.2959   -1.8100 C   0  0  0  0  0  0  0  0  0  0  0  0
    0.1531   -0.7081   -1.2077 C   0  0  0  0  0  0  0  0  0  0  0  0
    1.5270   -0.6438   -1.0235 C   0  0  0  0  0  0  0  0  0  0  0  0
    2.1890    0.4666   -1.4585 C   0  0  0  0  0  0  0  0  0  0  0  0
    3.6491    0.6228   -1.2742 C   0  0  0  0  0  0  0  0  0  0  0  0
    4.1899    1.7190   -1.5716 O   0  0  0  0  0  0  0  0  0  0  0  0
    4.4410   -0.4207   -0.7753 N   0  0  0  0  0  0  0  0  0  0  0  0
    5.9692    0.0044   -0.6610 C   0  0  1  0  0  0  0  0  0  0  0  0
    5.6163    1.1266    0.5187 C   0  0  0  0  0  0  0  0  0  0  0  0
    6.9493    1.7128    0.8155 C   0  0  0  0  0  0  0  0  0  0  0  0
    6.7857    2.7356    1.8695 C   0  0  0  0  0  0  0  0  0  0  0  0
    5.6488    2.9325    2.3989 O   0  0  0  0  0  0  0  0  0  0  0  0
    7.8323    3.4957    2.3068 O   0  0  0  0  0  0  0  0  0  0  0  0
    6.3920   -1.1271    0.3668 C   0  0  0  0  0  0  0  0  0  0  0  0
    5.6533   -1.9507    0.8175 O   0  0  0  0  0  0  0  0  0  0  0  0
    7.7126   -1.0579    0.6833 O   0  0  0  0  0  0  0  0  0  0  0  0
    1.4796    1.4893   -2.0687 C   0  0  0  0  0  0  0  0  0  0  0  0
    0.1177    1.4274   -2.2531 C   0  0  0  0  0  0  0  0  0  0  0  0
  1  2  1  0
  2  3  1  0
  3  4  2  0
  4  5  1  0
  5  6  2  0
  6  7  1  0
  6  8  1  0
  8  9  1  0
  9 10  2  0
  4 11  1  0
 11 12  1  0
 12 13  1  0
 13 14  1  6
 14 15  1  0
 15 16  1  0
 16 17  2  0
 17 18  1  0
 18 19  2  0
 19 20  1  0
 20 21  2  0
 20 22  1  0
 22 23  1  0
 23 24  1  1
 24 25  1  0
 25 26  1  0
 26 27  2  0
 26 28  1  0
 23 29  1  0
 29 30  2  0
 29 31  1  0
 19 32  1  0
 32 33  2  0
 13  2  1  0
 33 16  1  0
  9  3  1  0
M  END
>  <zinc_id>  (17) 
ZINC000002005305

>  <smiles>  (17) 
CN1c2c(nc(N)[nH]c2=O)NC[C@@H]1CNc1ccc(C(=O)N[C@@H](CCC(=O)O)C(=O)O)cc1

$$$$

     RDKit          3D

 30 34  0  0  0  0  0  0  0  0999 V2000
    2.3589   -0.8841   -3.0024 C   0  0  0  0  0  0  0  0  0  0  0  0
    3.1662   -1.1243   -1.8880 O   0  0  0  0  0  0  0  0  0  0  0  0
    2.6440   -0.8754   -0.6338 C   0  0  0  0  0  0  0  0  0  0  0  0
    1.3575   -0.3998   -0.4380 C   0  0  0  0  0  0  0  0  0  0  0  0
    0.8056   -0.1446    0.7304 C   0  0  0  0  0  0  0  0  0  0  0  0
   -0.5570    0.3552    1.1414 C   0  0  2  0  0  0  0  0  0  0  0  0
   -1.6050   -0.2301    0.2160 C   0  0  0  0  0  0  0  0  0  0  0  0
   -1.4959   -1.3841   -0.4476 C   0  0  0  0  0  0  0  0  0  0  0  0
   -2.4816   -1.8933   -1.2608 C   0  0  0  0  0  0  0  0  0  0  0  0
   -3.6448   -1.1700   -1.3960 C   0  0  0  0  0  0  0  0  0  0  0  0
   -3.8057    0.0312   -0.7298 C   0  0  0  0  0  0  0  0  0  0  0  0
   -2.7670    0.4608    0.0599 C   0  0  0  0  0  0  0  0  0  0  0  0
   -2.9152    1.8606    0.8216 C   0  0  2  0  0  0  0  0  0  0  0  0
   -3.8663    2.5388   -0.1338 O   0  0  0  0  0  0  0  0  0  0  0  0
   -1.5544    2.3667   -0.1262 C   0  0  1  0  0  0  0  0  0  0  0  0
   -1.4433    3.8782    0.4177 C   0  0  0  0  0  0  0  0  0  0  0  0
   -0.0203    3.8665    0.1410 O   0  0  0  0  0  0  0  0  0  0  0  0
    0.5517    2.6456    0.5114 C   0  0  0  0  0  0  0  0  0  0  0  0
    1.7249    2.5056    0.2311 O   0  0  0  0  0  0  0  0  0  0  0  0
   -0.5959    1.9428    1.1573 C   0  0  2  0  0  0  0  0  0  0  0  0
   -4.4935   -1.8583   -2.2510 O   0  0  0  0  0  0  0  0  0  0  0  0
   -3.7688   -2.9632   -2.8134 C   0  0  0  0  0  0  0  0  0  0  0  0
   -2.5946   -3.0548   -2.0409 O   0  0  0  0  0  0  0  0  0  0  0  0
    1.5901   -0.3764    1.8324 C   0  0  0  0  0  0  0  0  0  0  0  0
    2.8768   -0.8459    1.7615 C   0  0  0  0  0  0  0  0  0  0  0  0
    3.6174   -1.0598    2.9028 O   0  0  0  0  0  0  0  0  0  0  0  0
    3.0238   -0.7849    4.1565 C   0  0  0  0  0  0  0  0  0  0  0  0
    3.3905   -1.0917    0.5071 C   0  0  0  0  0  0  0  0  0  0  0  0
    4.6857   -1.5683    0.3555 O   0  0  0  0  0  0  0  0  0  0  0  0
    5.8165   -0.7433    0.2182 C   0  0  0  0  0  0  0  0  0  0  0  0
  1  2  1  0
  2  3  1  0
  3  4  2  0
  4  5  1  0
  6  5  1  6
  6  7  1  0
  7  8  2  0
  8  9  1  0
  9 10  2  0
 10 11  1  0
 11 12  2  0
 12 13  1  0
 13 14  1  6
 13 15  1  0
 15 16  1  1
 16 17  1  0
 17 18  1  0
 18 19  2  0
 20 18  1  6
 10 21  1  0
 21 22  1  0
 22 23  1  0
  5 24  2  0
 24 25  1  0
 25 26  1  0
 26 27  1  0
 25 28  2  0
 28 29  1  0
 29 30  1  0
 28  3  1  0
 20  6  1  0
 12  7  1  0
 20 15  1  0
 23  9  1  0
M  END
>  <zinc_id>  (18) 
ZINC000003861806

>  <smiles>  (18) 
COc1cc([C@@H]2c3cc4c(cc3[C@H](O)[C@H]3COC(=O)[C@H]23)OCO4)cc(OC)c1OC

$$$$

     RDKit          2D

 12 11  0  0  0  0  0  0  0  0999 V2000
    4.5609    0.1026    0.0000 O   0  0  0  0  0  0  0  0  0  0  0  0
    3.1906    0.7126    0.0000 C   0  0  0  0  0  0  0  0  0  0  0  0
    1.9771   -0.1691    0.0000 C   0  0  0  0  0  0  0  0  0  0  0  0
    2.1340   -1.6609    0.0000 O   0  0  0  0  0  0  0  0  0  0  0  0
    0.6067    0.4409    0.0000 C   0  0  0  0  0  0  0  0  0  0  0  0
    0.4498    1.9327    0.0000 O   0  0  0  0  0  0  0  0  0  0  0  0
   -0.6067   -0.4409    0.0000 C   0  0  0  0  0  0  0  0  0  0  0  0
   -0.4498   -1.9327    0.0000 O   0  0  0  0  0  0  0  0  0  0  0  0
   -1.9771    0.1691    0.0000 C   0  0  0  0  0  0  0  0  0  0  0  0
   -2.1340    1.6609    0.0000 O   0  0  0  0  0  0  0  0  0  0  0  0
   -3.1906   -0.7126    0.0000 C   0  0  0  0  0  0  0  0  0  0  0  0
   -4.5609   -0.1026    0.0000 O   0  0  0  0  0  0  0  0  0  0  0  0
  1  2  2  0
  2  3  1  0
  3  4  1  6
  3  5  1  0
  5  6  1  6
  5  7  1  0
  7  8  1  6
  7  9  1  0
  9 10  1  1
  9 11  1  0
 11 12  1  0
M  END
>  <zinc_id>  (19) 
ZINC000100009383

>  <smiles>  (19) 
O=C[C@H](O)[C@@H](O)[C@H](O)[C@H](O)CO

$$$$

     RDKit          3D

 18 20  0  0  0  0  0  0  0  0999 V2000
   -3.4884    2.4067    0.2776 C   0  0  0  0  0  0  0  0  0  0  0  0
   -3.9986    1.8811   -0.6657 N   0  0  0  0  0  0  0  0  0  0  0  0
   -3.2525    0.5381   -1.0064 C   0  0  2  0  0  0  0  0  0  0  0  0
   -3.6102   -0.1484    0.4573 C   0  0  0  0  0  0  0  0  0  0  0  0
   -3.0715   -1.5597    0.1506 C   0  0  0  0  0  0  0  0  0  0  0  0
   -1.5891   -1.3457    0.1844 C   0  0  0  0  0  0  0  0  0  0  0  0
   -0.6092   -2.2066    0.4938 N   0  0  0  0  0  0  0  0  0  0  0  0
    0.6128   -1.6063    0.4021 C   0  0  0  0  0  0  0  0  0  0  0  0
    1.9013   -2.0593    0.6160 C   0  0  0  0  0  0  0  0  0  0  0  0
    2.9481   -1.1840    0.4351 C   0  0  0  0  0  0  0  0  0  0  0  0
    2.7316    0.1048    0.0533 C   0  0  0  0  0  0  0  0  0  0  0  0
    3.7825    1.0839   -0.1558 C   0  0  0  0  0  0  0  0  0  0  0  0
    5.1260    0.6795    0.0281 N   0  0  0  0  0  0  0  0  0  0  0  0
    3.5682    2.2662   -0.4893 O   0  0  0  0  0  0  0  0  0  0  0  0
    1.4334    0.5241   -0.1515 C   0  0  0  0  0  0  0  0  0  0  0  0
    0.3232   -0.3035    0.0115 C   0  0  0  0  0  0  0  0  0  0  0  0
   -1.0342   -0.1398   -0.1236 C   0  0  0  0  0  0  0  0  0  0  0  0
   -1.7734    1.0689   -0.5176 C   0  0  0  0  0  0  0  0  0  0  0  0
  1  2  1  0
  3  2  1  1
  3  4  1  0
  4  5  1  0
  5  6  1  0
  6  7  1  0
  7  8  1  0
  8  9  2  0
  9 10  1  0
 10 11  2  0
 11 12  1  0
 12 13  1  0
 12 14  2  0
 11 15  1  0
 15 16  2  0
 16 17  1  0
 17 18  1  0
 18  3  1  0
 17  6  2  0
 16  8  1  0
M  END
>  <zinc_id>  (20) 
ZINC000000018635

>  <smiles>  (20) 
CN[C@@H]1CCc2[nH]c3ccc(C(N)=O)cc3c2C1

$$$$

     RDKit          3D

 16 18  0  0  0  0  0  0  0  0999 V2000
    0.2283    3.2242    0.2857 C   0  0  0  0  0  0  0  0  0  0  0  0
    0.3646    2.0313    1.0673 O   0  0  0  0  0  0  0  0  0  0  0  0
    0.4830    0.7858    0.4426 C   0  0  0  0  0  0  0  0  0  0  0  0
    1.7191    0.2713    0.1042 C   0  0  0  0  0  0  0  0  0  0  0  0
    2.9337    0.7319    0.2499 O   0  0  0  0  0  0  0  0  0  0  0  0
    3.8184   -0.1117   -0.2277 C   0  0  0  0  0  0  0  0  0  0  0  0
    3.1343   -1.2145   -0.7274 C   0  0  0  0  0  0  0  0  0  0  0  0
    1.7976   -0.9592   -0.5104 C   0  0  0  0  0  0  0  0  0  0  0  0
    0.6359   -1.6429   -0.7702 C   0  0  0  0  0  0  0  0  0  0  0  0
   -0.6153   -1.1384   -0.4356 C   0  0  0  0  0  0  0  0  0  0  0  0
   -1.7919   -1.8107   -0.6887 C   0  0  0  0  0  0  0  0  0  0  0  0
   -3.0048   -1.2731   -0.3403 C   0  0  0  0  0  0  0  0  0  0  0  0
   -3.0031   -0.0368    0.2717 C   0  0  0  0  0  0  0  0  0  0  0  0
   -4.1246    0.4624    0.5948 O   0  0  0  0  0  0  0  0  0  0  0  0
   -1.8722    0.5877    0.5042 O   0  0  0  0  0  0  0  0  0  0  0  0
   -0.7028    0.0928    0.1799 C   0  0  0  0  0  0  0  0  0  0  0  0
  1  2  1  0
  2  3  1  0
  3  4  2  0
  4  5  1  0
  5  6  1  0
  6  7  2  0
  7  8  1  0
  8  9  2  0
  9 10  1  0
 10 11  1  0
 11 12  2  0
 12 13  1  0
 13 14  2  0
 13 15  1  0
 15 16  1  0
 16  3  1  0
  8  4  1  0
 16 10  2  0
M  END
>  <zinc_id>  (21) 
ZINC000002548959

>  <smiles>  (21) 
COc1c2occc2cc2ccc(=O)oc12

$$$$

     RDKit          3D

 24 27  0  0  0  0  0  0  0  0999 V2000
    5.7133   -1.0530    1.0911 C   0  0  0  0  0  0  0  0  0  0  0  0
    5.1189   -0.9128    0.8790 C   0  0  0  0  0  0  0  0  0  0  0  0
    4.3221   -0.2012   -0.2876 C   0  0  1  0  0  0  0  0  0  0  0  0
    3.1506   -1.3329   -0.3682 C   0  0  0  0  0  0  0  0  0  0  0  0
    2.0004   -0.6396   -0.8331 N   0  0  0  0  0  0  0  0  0  0  0  0
    2.5292    0.5790   -1.5491 C   0  0  0  0  0  0  0  0  0  0  0  0
    2.7036    1.5933   -0.4725 C   0  0  0  0  0  0  0  0  0  0  0  0
    3.5905    0.9251    0.7423 C   0  0  1  0  0  0  0  0  0  0  0  0
    2.3900   -0.0213    1.3659 C   0  0  0  0  0  0  0  0  0  0  0  0
    1.2342    0.0614    0.2695 C   0  0  2  0  0  0  0  0  0  0  0  0
    0.2538   -1.0971    0.8654 C   0  0  1  0  0  0  0  0  0  0  0  0
   -0.4431   -0.2753    1.8529 O   0  0  0  0  0  0  0  0  0  0  0  0
   -0.8269   -0.9211   -0.3339 C   0  0  0  0  0  0  0  0  0  0  0  0
   -0.4118   -1.4723   -1.5461 C   0  0  0  0  0  0  0  0  0  0  0  0
   -1.2697   -1.3602   -2.6235 C   0  0  0  0  0  0  0  0  0  0  0  0
   -2.4297   -0.7411   -2.4836 N   0  0  0  0  0  0  0  0  0  0  0  0
   -2.7739   -0.2324   -1.3063 C   0  0  0  0  0  0  0  0  0  0  0  0
   -3.9519    0.5372   -1.2756 C   0  0  0  0  0  0  0  0  0  0  0  0
   -4.2631    1.1714   -0.1034 C   0  0  0  0  0  0  0  0  0  0  0  0
   -3.4366    1.0589    1.0389 C   0  0  0  0  0  0  0  0  0  0  0  0
   -3.8713    1.7624    2.1840 O   0  0  0  0  0  0  0  0  0  0  0  0
   -5.0424    2.5718    2.0948 C   0  0  0  0  0  0  0  0  0  0  0  0
   -2.2917    0.3100    0.9928 C   0  0  0  0  0  0  0  0  0  0  0  0
   -1.9946   -0.3100   -0.1937 C   0  0  0  0  0  0  0  0  0  0  0  0
  1  2  2  0
  3  2  1  1
  3  4  1  0
  4  5  1  0
  5  6  1  0
  6  7  1  0
  8  7  1  6
  8  9  1  0
 10  9  1  1
 10 11  1  0
 11 12  1  1
 11 13  1  0
 13 14  2  0
 14 15  1  0
 15 16  2  0
 16 17  1  0
 17 18  2  0
 18 19  1  0
 19 20  2  0
 20 21  1  0
 21 22  1  0
 20 23  1  0
 23 24  2  0
  8  3  1  0
 24 13  1  0
 10  5  1  0
 24 17  1  0
M  END
>  <zinc_id>  (22) 
ZINC000003831405

>  <smiles>  (22) 
C=C[C@H]1CN2CC[C@H]1C[C@@H]2[C@@H](O)c1ccnc2ccc(OC)cc12

$$$$

     RDKit          3D

 24 27  0  0  0  0  0  0  0  0999 V2000
    5.5707    1.2865   -1.0523 C   0  0  0  0  0  0  0  0  0  0  0  0
    4.3904    0.8322   -0.6804 C   0  0  0  0  0  0  0  0  0  0  0  0
    4.3708   -0.1641    0.5571 C   0  0  1  0  0  0  0  0  0  0  0  0
    3.1035    0.4015    1.3452 C   0  0  0  0  0  0  0  0  0  0  0  0
    1.8934   -0.0837    1.0506 N   0  0  0  0  0  0  0  0  0  0  0  0
    1.5781   -1.4534    1.1598 C   0  0  0  0  0  0  0  0  0  0  0  0
    2.9019   -2.0672    1.0607 C   0  0  0  0  0  0  0  0  0  0  0  0
    3.6822   -1.4925   -0.2346 C   0  0  1  0  0  0  0  0  0  0  0  0
    2.5034   -0.8780   -1.0696 C   0  0  0  0  0  0  0  0  0  0  0  0
    1.7276    0.3383   -0.4361 C   0  0  1  0  0  0  0  0  0  0  0  0
    0.2176   -0.4385   -0.5791 C   0  0  2  0  0  0  0  0  0  0  0  0
    0.0847   -0.0092   -2.0329 O   0  0  0  0  0  0  0  0  0  0  0  0
   -0.6417    0.7551   -0.0071 C   0  0  0  0  0  0  0  0  0  0  0  0
   -0.1759    1.9532    0.3100 C   0  0  0  0  0  0  0  0  0  0  0  0
   -1.0400    2.9137    0.7978 C   0  0  0  0  0  0  0  0  0  0  0  0
   -2.3425    2.6182    0.9437 N   0  0  0  0  0  0  0  0  0  0  0  0
   -2.8809    1.4162    0.6388 C   0  0  0  0  0  0  0  0  0  0  0  0
   -4.2202    1.1436    0.8014 C   0  0  0  0  0  0  0  0  0  0  0  0
   -4.7018   -0.0987    0.4745 C   0  0  0  0  0  0  0  0  0  0  0  0
   -3.8491   -1.0611   -0.0118 C   0  0  0  0  0  0  0  0  0  0  0  0
   -4.2845   -2.3364   -0.3585 O   0  0  0  0  0  0  0  0  0  0  0  0
   -3.3808   -3.2913   -0.8521 C   0  0  0  0  0  0  0  0  0  0  0  0
   -2.5246   -0.7532   -0.1598 C   0  0  0  0  0  0  0  0  0  0  0  0
   -1.9823    0.4686    0.1489 C   0  0  0  0  0  0  0  0  0  0  0  0
  1  2  2  0
  3  2  1  6
  3  4  1  0
  4  5  1  0
  5  6  1  0
  6  7  1  0
  8  7  1  1
  8  9  1  0
 10  9  1  6
 10 11  1  0
 11 12  1  6
 11 13  1  0
 13 14  2  0
 14 15  1  0
 15 16  2  0
 16 17  1  0
 17 18  2  0
 18 19  1  0
 19 20  2  0
 20 21  1  0
 21 22  1  0
 20 23  1  0
 23 24  2  0
  8  3  1  0
 24 13  1  0
 10  5  1  0
 24 17  1  0
M  END
>  <zinc_id>  (23) 
ZINC000003831404

>  <smiles>  (23) 
C=C[C@H]1CN2CC[C@H]1C[C@H]2[C@H](O)c1ccnc2ccc(OC)cc12

$$$$

     RDKit          3D

 24 28  0  0  0  0  0  0  0  0999 V2000
    5.2107    1.8072    0.7628 C   0  0  0  0  0  0  0  0  0  0  0  0
    4.8313    0.5714    0.4417 C   0  0  0  0  0  0  0  0  0  0  0  0
    3.7042    0.5154   -0.5594 C   0  0  0  0  0  0  0  0  0  0  0  0
    2.6159   -0.1800    0.0787 N   0  0  0  0  0  0  0  0  0  0  0  0
    2.0429    0.5343    1.1258 C   0  0  0  0  0  0  0  0  0  0  0  0
    0.7788    0.0205    1.7201 C   0  0  0  0  0  0  0  0  0  0  0  0
   -0.2042   -0.4366    0.6399 C   0  0  1  0  0  0  0  0  0  0  0  0
   -0.9057    0.6012   -0.0120 C   0  0  0  0  0  0  0  0  0  0  0  0
   -2.1662    0.6673    0.3841 C   0  0  0  0  0  0  0  0  0  0  0  0
   -2.9433    1.6757   -0.2319 C   0  0  0  0  0  0  0  0  0  0  0  0
   -4.2651    1.7936    0.1401 O   0  0  0  0  0  0  0  0  0  0  0  0
   -2.3447    2.4980   -1.1787 C   0  0  0  0  0  0  0  0  0  0  0  0
   -0.9781    2.3374   -1.5272 C   0  0  0  0  0  0  0  0  0  0  0  0
   -0.2292    1.3494   -0.9192 C   0  0  0  0  0  0  0  0  0  0  0  0
    1.1470    1.1201   -1.1908 C   0  0  0  0  0  0  0  0  0  0  0  0
    1.6274   -0.3970   -1.1071 C   0  0  2  0  0  0  0  0  0  0  0  0
    0.5381   -1.2040   -0.2798 C   0  0  1  0  0  0  0  0  0  0  0  0
    1.2260   -2.2227    0.4349 O   0  0  0  0  0  0  0  0  0  0  0  0
   -0.1850   -2.0097   -1.3617 C   0  0  0  0  0  0  0  0  0  0  0  0
   -0.9268   -3.0365   -0.5157 C   0  0  0  0  0  0  0  0  0  0  0  0
   -1.8170   -2.2213    0.3092 C   0  0  0  0  0  0  0  0  0  0  0  0
   -2.9875   -2.2840    0.1295 O   0  0  0  0  0  0  0  0  0  0  0  0
   -1.3277   -1.2610    1.4253 C   0  0  2  0  0  0  0  0  0  0  0  0
   -2.4418   -0.2387    1.2916 O   0  0  0  0  0  0  0  0  0  0  0  0
  1  2  2  0
  2  3  1  0
  3  4  1  0
  4  5  1  0
  5  6  1  0
  7  6  1  1
  7  8  1  0
  8  9  2  0
  9 10  1  0
 10 11  1  0
 10 12  2  0
 12 13  1  0
 13 14  2  0
 14 15  1  0
 16 15  1  1
 16 17  1  0
 17 18  1  1
 17 19  1  0
 19 20  1  0
 20 21  1  0
 21 22  2  0
 21 23  1  0
 23 24  1  6
 16  4  1  0
 17  7  1  0
 23  7  1  0
 14  8  1  0
 24  9  1  0
M  END
>  <zinc_id>  (24) 
ZINC000000389747

>  <smiles>  (24) 
C=CCN1CC[C@]23c4c5ccc(O)c4O[C@H]2C(=O)CC[C@@]3(O)[C@H]1C5

$$$$

     RDKit          3D

 25 26  0  0  0  0  0  0  0  0999 V2000
   -1.8017   -4.5719   -0.9386 C   0  0  0  0  0  0  0  0  0  0  0  0
   -2.0208   -3.1769   -1.0682 O   0  0  0  0  0  0  0  0  0  0  0  0
   -1.1533   -2.2357   -0.4903 C   0  0  0  0  0  0  0  0  0  0  0  0
   -0.1915   -2.7351    0.1350 O   0  0  0  0  0  0  0  0  0  0  0  0
   -1.3884   -0.7829   -0.6299 C   0  0  0  0  0  0  0  0  0  0  0  0
   -2.4536   -0.4676   -1.3326 C   0  0  0  0  0  0  0  0  0  0  0  0
   -3.3565   -1.5249   -1.9323 C   0  0  0  0  0  0  0  0  0  0  0  0
   -2.6923    0.9026   -1.5753 N   0  0  0  0  0  0  0  0  0  0  0  0
   -1.7783    1.8376   -1.0532 C   0  0  0  0  0  0  0  0  0  0  0  0
   -2.0105    3.3210   -1.3141 C   0  0  0  0  0  0  0  0  0  0  0  0
   -0.7004    1.5506   -0.3338 C   0  0  0  0  0  0  0  0  0  0  0  0
    0.1568    2.6639    0.1156 C   0  0  0  0  0  0  0  0  0  0  0  0
   -0.1647    3.8728   -0.1706 O   0  0  0  0  0  0  0  0  0  0  0  0
    1.3150    2.5580    0.8339 O   0  0  0  0  0  0  0  0  0  0  0  0
    2.0919    3.6728    1.2284 C   0  0  0  0  0  0  0  0  0  0  0  0
   -0.4737    0.1346    0.0589 C   0  0  0  0  0  0  0  0  0  0  0  0
    0.9403   -0.2722    0.0229 C   0  0  0  0  0  0  0  0  0  0  0  0
    1.6409   -0.3706   -1.1864 C   0  0  0  0  0  0  0  0  0  0  0  0
    2.9892   -0.6562   -1.2252 C   0  0  0  0  0  0  0  0  0  0  0  0
    3.6936   -0.8555   -0.0558 C   0  0  0  0  0  0  0  0  0  0  0  0
    3.0263   -0.7655    1.1383 C   0  0  0  0  0  0  0  0  0  0  0  0
    1.6479   -0.4751    1.1730 C   0  0  0  0  0  0  0  0  0  0  0  0
    1.0416   -0.4843    2.4517 N   0  0  0  0  0  0  0  0  0  0  0  0
    0.0679    0.2090    2.7255 O   0  0  0  0  0  0  0  0  0  0  0  0
    1.5742   -1.3488    3.4231 O   0  0  0  0  0  0  0  0  0  0  0  0
  1  2  1  0
  2  3  1  0
  3  4  2  0
  3  5  1  0
  5  6  2  0
  6  7  1  0
  6  8  1  0
  8  9  1  0
  9 10  1  0
  9 11  2  0
 11 12  1  0
 12 13  2  0
 12 14  1  0
 14 15  1  0
 11 16  1  0
 16 17  1  0
 17 18  2  0
 18 19  1  0
 19 20  2  0
 20 21  1  0
 21 22  2  0
 22 23  1  0
 23 24  2  0
 23 25  1  0
 16  5  1  0
 22 17  1  0
M  CHG  2  23   1  25  -1
M  END
>  <zinc_id>  (25) 
ZINC000085205448

>  <smiles>  (25) 
COC(=O)C1=C(C)NC(C)=C(C(=O)OC)C1c1ccccc1[N+](=O)[O-]

$$$$

     RDKit          3D

 11 12  0  0  0  0  0  0  0  0999 V2000
   -2.0971   -0.0682    0.5107 C   0  0  0  0  0  0  0  0  0  0  0  0
   -0.7946   -0.1704    0.6061 C   0  0  0  0  0  0  0  0  0  0  0  0
   -0.2621   -1.0220    1.7539 C   0  0  0  0  0  0  0  0  0  0  0  0
   -0.1748    1.2885    0.9214 C   0  0  2  0  0  0  0  0  0  0  0  0
   -0.6820    1.8838   -0.5026 C   0  0  0  0  0  0  0  0  0  0  0  0
   -0.3002    0.8180   -1.4591 C   0  0  0  0  0  0  0  0  0  0  0  0
   -0.0727   -0.4437   -0.6771 C   0  0  2  0  0  0  0  0  0  0  0  0
   -0.3793   -1.6941   -1.3501 C   0  0  0  0  0  0  0  0  0  0  0  0
    1.3087   -0.3475   -0.1002 C   0  0  0  0  0  0  0  0  0  0  0  0
    2.1196   -1.2449   -0.1213 O   0  0  0  0  0  0  0  0  0  0  0  0
    1.3344    1.0005    0.4183 C   0  0  0  0  0  0  0  0  0  0  0  0
  1  2  1  0
  2  3  1  0
  2  4  1  0
  4  5  1  6
  5  6  1  0
  6  7  1  0
  7  8  1  6
  7  9  1  0
  9 10  2  0
  9 11  1  0
  7  2  1  0
 11  4  1  0
M  END
>  <zinc_id>  (26) 
ZINC000000967520

>  <smiles>  (26) 
CC1(C)[C@@H]2CC[C@@]1(C)C(=O)C2

$$$$

     RDKit          3D

 21 21  0  0  0  0  0  0  0  0999 V2000
    6.3794   -1.4571   -0.7823 C   0  0  0  0  0  0  0  0  0  0  0  0
    6.0608   -1.2999   -0.4047 C   0  0  0  0  0  0  0  0  0  0  0  0
    6.1118   -0.1244    0.5401 C   0  0  0  0  0  0  0  0  0  0  0  0
    4.9803   -0.0442    1.4811 C   0  0  0  0  0  0  0  0  0  0  0  0
    3.5994    0.0801    0.6476 C   0  0  2  0  0  0  0  0  0  0  0  0
    3.9819    1.4540   -0.1087 C   0  0  0  0  0  0  0  0  0  0  0  0
    4.2371    2.5382    0.8524 C   0  0  0  0  0  0  0  0  0  0  0  0
    2.8009    0.7793    1.8688 C   0  0  0  0  0  0  0  0  0  0  0  0
    1.4962    1.0239    1.4262 O   0  0  0  0  0  0  0  0  0  0  0  0
    0.6658    0.0112    1.0129 C   0  0  0  0  0  0  0  0  0  0  0  0
    1.0755   -1.1779    1.0266 O   0  0  0  0  0  0  0  0  0  0  0  0
   -0.6877    0.3190    0.5598 C   0  0  0  0  0  0  0  0  0  0  0  0
   -1.5004   -0.6178    0.1614 C   0  0  0  0  0  0  0  0  0  0  0  0
   -2.8630   -0.4010   -0.3052 C   0  0  0  0  0  0  0  0  0  0  0  0
   -3.4391    0.8498   -0.3719 C   0  0  0  0  0  0  0  0  0  0  0  0
   -4.7354    0.9417   -0.8287 C   0  0  0  0  0  0  0  0  0  0  0  0
   -5.4698   -0.1469   -1.2159 C   0  0  0  0  0  0  0  0  0  0  0  0
   -6.7806   -0.0457   -1.6768 O   0  0  0  0  0  0  0  0  0  0  0  0
   -7.4754   -1.2136   -2.0587 C   0  0  0  0  0  0  0  0  0  0  0  0
   -4.8653   -1.3821   -1.1372 C   0  0  0  0  0  0  0  0  0  0  0  0
   -3.5725   -1.5213   -0.6870 C   0  0  0  0  0  0  0  0  0  0  0  0
  1  2  1  0
  2  3  1  0
  3  4  1  0
  5  4  1  1
  5  6  1  0
  6  7  1  0
  5  8  1  0
  8  9  1  0
  9 10  1  0
 10 11  2  0
 10 12  1  0
 12 13  2  0
 13 14  1  0
 14 15  2  0
 15 16  1  0
 16 17  2  0
 17 18  1  0
 18 19  1  0
 17 20  1  0
 20 21  2  0
 21 14  1  0
M  END
>  <zinc_id>  (27) 
ZINC000001633889

>  <smiles>  (27) 
CCCC[C@H](CC)COC(=O)/C=C/c1ccc(OC)cc1

$$$$

     RDKit          3D

 39 38  0  0  0  0  0  0  0  0999 V2000
    8.0466    6.1592    0.0643 C   0  0  0  0  0  0  0  0  0  0  0  0
    8.2641    4.7241    0.4342 C   0  0  0  0  0  0  0  0  0  0  0  0
    8.9963    4.3931    1.3777 O   0  0  0  0  0  0  0  0  0  0  0  0
    7.5918    3.7461   -0.3462 N   0  0  0  0  0  0  0  0  0  0  0  0
    6.7852    4.0693   -1.3827 O   0  0  0  0  0  0  0  0  0  0  0  0
    7.7810    2.3446   -0.0142 C   0  0  0  0  0  0  0  0  0  0  0  0
    6.7419    1.8797    0.9920 C   0  0  0  0  0  0  0  0  0  0  0  0
    7.0456    0.4031    1.2568 C   0  0  0  0  0  0  0  0  0  0  0  0
    6.9432   -0.3835   -0.0326 C   0  0  0  0  0  0  0  0  0  0  0  0
    7.2495   -1.8276    0.2759 C   0  0  0  0  0  0  0  0  0  0  0  0
    6.2830   -2.2976    1.2414 N   0  0  0  0  0  0  0  0  0  0  0  0
    4.8946   -2.2943    0.9604 C   0  0  0  0  0  0  0  0  0  0  0  0
    4.5152   -1.8708   -0.1552 O   0  0  0  0  0  0  0  0  0  0  0  0
    3.8936   -2.7664    1.9244 C   0  0  0  0  0  0  0  0  0  0  0  0
    2.4841   -2.7382    1.4648 C   0  0  0  0  0  0  0  0  0  0  0  0
    2.1745   -3.5610    0.2900 C   0  0  0  0  0  0  0  0  0  0  0  0
    3.0303   -4.3127   -0.2707 O   0  0  0  0  0  0  0  0  0  0  0  0
    0.8389   -3.5121   -0.2485 N   0  0  0  0  0  0  0  0  0  0  0  0
    0.5766   -4.2630   -1.3105 O   0  0  0  0  0  0  0  0  0  0  0  0
   -0.1106   -2.6642    0.4060 C   0  0  0  0  0  0  0  0  0  0  0  0
   -0.2012   -1.2793   -0.0573 C   0  0  0  0  0  0  0  0  0  0  0  0
   -0.6587   -0.9654   -1.4153 C   0  0  0  0  0  0  0  0  0  0  0  0
   -2.0430   -1.2739   -1.7916 C   0  0  0  0  0  0  0  0  0  0  0  0
   -2.5006   -2.6757   -1.7053 C   0  0  0  0  0  0  0  0  0  0  0  0
   -3.8839   -2.8016   -2.1110 N   0  0  0  0  0  0  0  0  0  0  0  0
   -4.9092   -2.0944   -1.4112 C   0  0  0  0  0  0  0  0  0  0  0  0
   -4.5386   -1.3799   -0.4518 O   0  0  0  0  0  0  0  0  0  0  0  0
   -6.2879   -2.2719   -1.8804 C   0  0  0  0  0  0  0  0  0  0  0  0
   -7.3134   -1.4954   -1.1320 C   0  0  0  0  0  0  0  0  0  0  0  0
   -7.1278   -0.0345   -1.1747 C   0  0  0  0  0  0  0  0  0  0  0  0
   -6.1926    0.5160   -1.8357 O   0  0  0  0  0  0  0  0  0  0  0  0
   -8.0075    0.8365   -0.4625 N   0  0  0  0  0  0  0  0  0  0  0  0
   -9.0293    0.3307    0.2659 O   0  0  0  0  0  0  0  0  0  0  0  0
   -7.8545    2.2770   -0.4829 C   0  0  0  0  0  0  0  0  0  0  0  0
   -6.9625    2.7523    0.6283 C   0  0  0  0  0  0  0  0  0  0  0  0
   -7.5088    2.3828    1.9648 C   0  0  0  0  0  0  0  0  0  0  0  0
   -6.6467    2.8402    3.0920 C   0  0  0  0  0  0  0  0  0  0  0  0
   -6.4863    4.3338    3.1101 C   0  0  0  0  0  0  0  0  0  0  0  0
   -5.8729    4.7751    1.8879 N   0  0  0  0  0  0  0  0  0  0  0  0
  1  2  1  0
  2  3  2  0
  2  4  1  0
  4  5  1  0
  4  6  1  0
  6  7  1  0
  7  8  1  0
  8  9  1  0
  9 10  1  0
 10 11  1  0
 11 12  1  0
 12 13  2  0
 12 14  1  0
 14 15  1  0
 15 16  1  0
 16 17  2  0
 16 18  1  0
 18 19  1  0
 18 20  1  0
 20 21  1  0
 21 22  1  0
 22 23  1  0
 23 24  1  0
 24 25  1  0
 25 26  1  0
 26 27  2  0
 26 28  1  0
 28 29  1  0
 29 30  1  0
 30 31  2  0
 30 32  1  0
 32 33  1  0
 32 34  1  0
 34 35  1  0
 35 36  1  0
 36 37  1  0
 37 38  1  0
 38 39  1  0
M  END
>  <zinc_id>  (28) 
ZINC000003830635

>  <smiles>  (28) 
CC(=O)N(O)CCCCCNC(=O)CCC(=O)N(O)CCCCCNC(=O)CCC(=O)N(O)CCCCCN

$$$$

     RDKit          3D

 39 43  0  0  0  0  0  0  0  0999 V2000
    5.0564   -3.1676    0.5092 C   0  0  0  0  0  0  0  0  0  0  0  0
    4.5454   -2.2076   -0.1735 O   0  0  0  0  0  0  0  0  0  0  0  0
    3.3078   -2.3412   -0.8348 C   0  0  0  0  0  0  0  0  0  0  0  0
    2.7654   -3.5335   -0.6739 O   0  0  0  0  0  0  0  0  0  0  0  0
    2.5856   -1.4443   -1.6210 C   0  0  0  0  0  0  0  0  0  0  0  0
    1.9032   -0.2345   -1.1853 C   0  0  2  0  0  0  0  0  0  0  0  0
    1.2175    0.3094   -2.3363 O   0  0  0  0  0  0  0  0  0  0  0  0
    2.8677    0.8720   -0.7932 C   0  0  0  0  0  0  0  0  0  0  0  0
    3.8212    1.3060   -1.8256 C   0  0  0  0  0  0  0  0  0  0  0  0
    4.5927    2.4864   -1.4876 C   0  0  0  0  0  0  0  0  0  0  0  0
    5.4349    2.6678   -0.3239 C   0  0  0  0  0  0  0  0  0  0  0  0
    4.6696    2.5421    1.0116 C   0  0  0  0  0  0  0  0  0  0  0  0
    6.6918    1.8578   -0.2010 C   0  0  0  0  0  0  0  0  0  0  0  0
    5.8957    4.0294   -0.3524 O   0  0  0  0  0  0  0  0  0  0  0  0
    0.9940   -0.3881   -0.0392 C   0  0  0  0  0  0  0  0  0  0  0  0
    1.5270   -0.0915    1.1060 O   0  0  0  0  0  0  0  0  0  0  0  0
   -0.3498   -0.8022   -0.0692 O   0  0  0  0  0  0  0  0  0  0  0  0
   -0.8816   -0.7219    1.3623 C   0  0  2  0  0  0  0  0  0  0  0  0
   -0.8988   -2.3410    1.4943 C   0  0  0  0  0  0  0  0  0  0  0  0
    0.1091   -2.8566    2.3189 O   0  0  0  0  0  0  0  0  0  0  0  0
   -0.2052   -3.7476    3.3177 C   0  0  0  0  0  0  0  0  0  0  0  0
   -1.8233   -2.8540    0.8152 C   0  0  0  0  0  0  0  0  0  0  0  0
   -2.6008   -1.8247    0.1038 C   0  0  2  0  0  0  0  0  0  0  0  0
   -4.0481   -2.3165    0.2718 C   0  0  0  0  0  0  0  0  0  0  0  0
   -4.0012   -3.4833   -0.7016 C   0  0  0  0  0  0  0  0  0  0  0  0
   -2.7632   -3.2103   -1.5216 C   0  0  0  0  0  0  0  0  0  0  0  0
   -2.4062   -1.7957   -1.1942 N   0  0  0  0  0  0  0  0  0  0  0  0
   -3.2053   -1.1113   -2.1442 C   0  0  0  0  0  0  0  0  0  0  0  0
   -4.3028   -0.2886   -1.5357 C   0  0  0  0  0  0  0  0  0  0  0  0
   -3.6159    0.7446   -0.7304 C   0  0  0  0  0  0  0  0  0  0  0  0
   -3.9282    1.9764   -1.2931 C   0  0  0  0  0  0  0  0  0  0  0  0
   -3.4449    3.1086   -0.7547 C   0  0  0  0  0  0  0  0  0  0  0  0
   -2.6337    3.0402    0.3568 C   0  0  0  0  0  0  0  0  0  0  0  0
   -2.3268    1.7854    0.9084 C   0  0  0  0  0  0  0  0  0  0  0  0
   -2.8006    0.6159    0.3962 C   0  0  0  0  0  0  0  0  0  0  0  0
   -2.5054   -0.6290    1.1039 C   0  0  2  0  0  0  0  0  0  0  0  0
   -2.3227    4.3649    0.6427 O   0  0  0  0  0  0  0  0  0  0  0  0
   -3.3097    5.2163    0.0652 C   0  0  0  0  0  0  0  0  0  0  0  0
   -3.6108    4.4679   -1.1174 O   0  0  0  0  0  0  0  0  0  0  0  0
  1  2  1  0
  2  3  1  0
  3  4  2  0
  3  5  1  0
  5  6  1  0
  6  7  1  6
  6  8  1  0
  8  9  1  0
  9 10  1  0
 10 11  1  0
 11 12  1  0
 11 13  1  0
 11 14  1  0
  6 15  1  0
 15 16  2  0
 15 17  1  0
 18 17  1  6
 18 19  1  0
 19 20  1  0
 20 21  1  0
 19 22  2  0
 23 22  1  1
 23 24  1  0
 24 25  1  0
 25 26  1  0
 26 27  1  0
 27 28  1  0
 28 29  1  0
 29 30  1  0
 30 31  2  0
 31 32  1  0
 32 33  2  0
 33 34  1  0
 34 35  2  0
 36 35  1  6
 33 37  1  0
 37 38  1  0
 38 39  1  0
 36 18  1  0
 27 23  1  0
 35 30  1  0
 36 23  1  0
 39 32  1  0
M  END
>  <zinc_id>  (29) 
ZINC000026011099

>  <smiles>  (29) 
COC(=O)C[C@](O)(CCCC(C)(C)O)C(=O)O[C@@H]1C(OC)=C[C@]23CCCN2CCc2cc4c(cc2[C@H]13)OCO4

$$$$

     RDKit          3D

 19 20  0  0  0  0  0  0  0  0999 V2000
    4.2892    0.2323    0.9221 C   0  0  0  0  0  0  0  0  0  0  0  0
    3.2563    0.5735   -0.3433 C   0  0  2  0  0  0  0  0  0  0  0  0
    2.5413    1.7512    0.4138 C   0  0  0  0  0  0  0  0  0  0  0  0
    1.7195    1.4969    1.2403 O   0  0  0  0  0  0  0  0  0  0  0  0
    2.9698    2.9803    0.0085 O   0  0  0  0  0  0  0  0  0  0  0  0
    2.2393   -0.5697   -0.0226 C   0  0  0  0  0  0  0  0  0  0  0  0
    2.6721   -1.7679    0.4532 C   0  0  0  0  0  0  0  0  0  0  0  0
    1.7742   -2.8210    0.6902 C   0  0  0  0  0  0  0  0  0  0  0  0
    0.4430   -2.5717    0.4162 C   0  0  0  0  0  0  0  0  0  0  0  0
   -0.0453   -1.3698   -0.0671 C   0  0  0  0  0  0  0  0  0  0  0  0
   -1.4418   -1.2498   -0.3343 C   0  0  0  0  0  0  0  0  0  0  0  0
   -2.0569   -2.3437   -0.6972 O   0  0  0  0  0  0  0  0  0  0  0  0
   -2.2955   -0.0930   -0.2609 C   0  0  0  0  0  0  0  0  0  0  0  0
   -1.9147    1.1985   -0.3206 C   0  0  0  0  0  0  0  0  0  0  0  0
   -2.7333    2.3139   -0.2358 C   0  0  0  0  0  0  0  0  0  0  0  0
   -4.0788    2.0730   -0.0788 C   0  0  0  0  0  0  0  0  0  0  0  0
   -4.5475    0.8021   -0.0132 C   0  0  0  0  0  0  0  0  0  0  0  0
   -3.6959   -0.2655   -0.0999 C   0  0  0  0  0  0  0  0  0  0  0  0
    0.9050   -0.3696   -0.2790 C   0  0  0  0  0  0  0  0  0  0  0  0
  2  1  1  1
  2  3  1  0
  3  4  2  0
  3  5  1  0
  2  6  1  0
  6  7  2  0
  7  8  1  0
  8  9  2  0
  9 10  1  0
 10 11  1  0
 11 12  2  0
 11 13  1  0
 13 14  2  0
 14 15  1  0
 15 16  2  0
 16 17  1  0
 17 18  2  0
 10 19  2  0
 19  6  1  0
 18 13  1  0
M  END
>  <zinc_id>  (30) 
ZINC000000005560

>  <smiles>  (30) 
C[C@H](C(=O)O)c1cccc(C(=O)c2ccccc2)c1

$$$$

     RDKit          3D

 24 25  0  0  0  0  0  0  0  0999 V2000
   -5.9696    1.5465    2.1751 C   0  0  0  0  0  0  0  0  0  0  0  0
   -5.2019    0.6355    1.2664 C   0  0  0  0  0  0  0  0  0  0  0  0
   -5.8985   -0.2606    0.4851 C   0  0  0  0  0  0  0  0  0  0  0  0
   -5.1689   -1.0846   -0.3396 C   0  0  0  0  0  0  0  0  0  0  0  0
   -3.7946   -0.9916   -0.3594 C   0  0  0  0  0  0  0  0  0  0  0  0
   -3.0695   -0.1100    0.4063 C   0  0  0  0  0  0  0  0  0  0  0  0
   -1.6595    0.0036    0.4029 N   0  0  0  0  0  0  0  0  0  0  0  0
   -0.8814   -0.8278   -0.4327 C   0  0  0  0  0  0  0  0  0  0  0  0
   -1.3889   -1.7837   -1.2845 C   0  0  0  0  0  0  0  0  0  0  0  0
   -0.6134   -2.5873   -2.0939 C   0  0  0  0  0  0  0  0  0  0  0  0
    0.7187   -2.4085   -2.0305 N   0  0  0  0  0  0  0  0  0  0  0  0
    1.2989   -1.4992   -1.2277 C   0  0  0  0  0  0  0  0  0  0  0  0
    0.4908   -0.6935   -0.4138 C   0  0  0  0  0  0  0  0  0  0  0  0
    1.1808    0.4958    0.6415 S   0  0  0  0  0  0  0  0  0  0  0  0
    0.8559    0.2570    2.0825 O   0  0  0  0  0  0  0  0  0  0  0  0
    0.7294    1.8892    0.3060 O   0  0  0  0  0  0  0  0  0  0  0  0
    2.8976    0.4555    0.4707 N   0  0  0  0  0  0  0  0  0  0  0  0
    3.4988    1.0294   -0.5172 C   0  0  0  0  0  0  0  0  0  0  0  0
    2.7871    1.7014   -1.4808 O   0  0  0  0  0  0  0  0  0  0  0  0
    4.9139    0.9635   -0.6065 N   0  0  0  0  0  0  0  0  0  0  0  0
    5.6345    0.5091    0.5837 C   0  0  0  0  0  0  0  0  0  0  0  0
    5.3328    1.4605    1.7430 C   0  0  0  0  0  0  0  0  0  0  0  0
    7.1326    0.5789    0.3613 C   0  0  0  0  0  0  0  0  0  0  0  0
   -3.8253    0.7209    1.2393 C   0  0  0  0  0  0  0  0  0  0  0  0
  1  2  1  0
  2  3  2  0
  3  4  1  0
  4  5  2  0
  5  6  1  0
  6  7  1  0
  7  8  1  0
  8  9  2  0
  9 10  1  0
 10 11  2  0
 11 12  1  0
 12 13  2  0
 13 14  1  0
 14 15  2  0
 14 16  2  0
 14 17  1  0
 17 18  2  0
 18 19  1  0
 18 20  1  0
 20 21  1  0
 21 22  1  0
 21 23  1  0
  6 24  2  0
 24  2  1  0
 13  8  1  0
M  END
>  <zinc_id>  (31) 
ZINC000000005823

>  <smiles>  (31) 
Cc1cccc(Nc2ccncc2S(=O)(=O)/N=C(\O)NC(C)C)c1

$$$$

     RDKit          3D

 20 22  0  0  0  0  0  0  0  0999 V2000
    4.6268   -2.2072   -0.8056 C   0  0  0  0  0  0  0  0  0  0  0  0
    3.8929   -1.6582    0.3056 N   0  0  0  0  0  0  0  0  0  0  0  0
    4.6704   -1.8889    1.5113 C   0  0  0  0  0  0  0  0  0  0  0  0
    2.5822   -2.2765    0.3972 C   0  0  0  0  0  0  0  0  0  0  0  0
    1.8189   -1.6945    1.5674 C   0  0  0  0  0  0  0  0  0  0  0  0
    1.6558   -0.2321    1.3778 C   0  0  0  0  0  0  0  0  0  0  0  0
    2.3471    0.8002    2.0115 C   0  0  0  0  0  0  0  0  0  0  0  0
    1.9014    1.9865    1.5595 N   0  0  0  0  0  0  0  0  0  0  0  0
    0.9381    1.7272    0.6488 C   0  0  0  0  0  0  0  0  0  0  0  0
    0.1461    2.5520   -0.1240 C   0  0  0  0  0  0  0  0  0  0  0  0
   -0.7836    2.0250   -0.9961 C   0  0  0  0  0  0  0  0  0  0  0  0
   -0.9662    0.6584   -1.1376 C   0  0  0  0  0  0  0  0  0  0  0  0
   -1.9816    0.1436   -2.0916 C   0  0  0  0  0  0  0  0  0  0  0  0
   -3.2534   -0.0003   -1.4051 N   0  0  0  0  0  0  0  0  0  0  0  0
   -4.1863    0.9718   -1.3256 C   0  0  0  0  0  0  0  0  0  0  0  0
   -5.2557    0.5375   -0.6254 N   0  0  0  0  0  0  0  0  0  0  0  0
   -4.9810   -0.7230   -0.2656 C   0  0  0  0  0  0  0  0  0  0  0  0
   -3.7626   -1.0156   -0.7538 N   0  0  0  0  0  0  0  0  0  0  0  0
   -0.1715   -0.1624   -0.3624 C   0  0  0  0  0  0  0  0  0  0  0  0
    0.7624    0.3659    0.5136 C   0  0  0  0  0  0  0  0  0  0  0  0
  1  2  1  0
  2  3  1  0
  2  4  1  0
  4  5  1  0
  5  6  1  0
  6  7  2  0
  7  8  1  0
  8  9  1  0
  9 10  2  0
 10 11  1  0
 11 12  2  0
 12 13  1  0
 13 14  1  0
 14 15  1  0
 15 16  2  0
 16 17  1  0
 17 18  2  0
 12 19  1  0
 19 20  2  0
 20  6  1  0
 20  9  1  0
 18 14  1  0
M  END
>  <zinc_id>  (32) 
ZINC000000005895

>  <smiles>  (32) 
CN(C)CCc1c[nH]c2ccc(Cn3cncn3)cc12

$$$$

     RDKit          3D

 20 21  0  0  0  0  0  0  0  0999 V2000
    5.0369   -1.1996   -0.0863 C   0  0  0  0  0  0  0  0  0  0  0  0
    4.4623   -0.0872    0.3944 O   0  0  0  0  0  0  0  0  0  0  0  0
    3.1019    0.1714    0.3723 C   0  0  0  0  0  0  0  0  0  0  0  0
    2.2887   -0.8069   -0.1927 C   0  0  0  0  0  0  0  0  0  0  0  0
    0.9086   -0.6093   -0.2468 C   0  0  0  0  0  0  0  0  0  0  0  0
    0.3716    0.5378    0.2531 C   0  0  0  0  0  0  0  0  0  0  0  0
   -1.1859    0.7521    0.1982 C   0  0  1  0  0  0  0  0  0  0  0  0
   -1.2207    1.3097   -1.3449 C   0  0  0  0  0  0  0  0  0  0  0  0
   -0.4143    2.4791   -1.2378 N   0  0  0  0  0  0  0  0  0  0  0  0
   -1.0268    3.5462   -0.4753 C   0  0  0  0  0  0  0  0  0  0  0  0
    0.1937    2.9120   -2.4695 C   0  0  0  0  0  0  0  0  0  0  0  0
   -1.6831   -0.7399   -0.1873 C   0  0  0  0  0  0  0  0  0  0  0  0
   -1.2050   -1.1584   -1.3592 O   0  0  0  0  0  0  0  0  0  0  0  0
   -3.2177   -0.6532   -0.1726 C   0  0  0  0  0  0  0  0  0  0  0  0
   -3.6923   -1.9012   -0.8812 C   0  0  0  0  0  0  0  0  0  0  0  0
   -2.7151   -3.0032   -0.4542 C   0  0  0  0  0  0  0  0  0  0  0  0
   -2.3421   -2.7711    0.9927 C   0  0  0  0  0  0  0  0  0  0  0  0
   -1.3341   -1.6124    1.0042 C   0  0  0  0  0  0  0  0  0  0  0  0
    1.1468    1.5172    0.8142 C   0  0  0  0  0  0  0  0  0  0  0  0
    2.5265    1.3171    0.8673 C   0  0  0  0  0  0  0  0  0  0  0  0
  1  2  1  0
  2  3  1  0
  3  4  2  0
  4  5  1  0
  5  6  2  0
  6  7  1  0
  7  8  1  6
  8  9  1  0
  9 10  1  0
  9 11  1  0
  7 12  1  0
 12 13  1  0
 12 14  1  0
 14 15  1  0
 15 16  1  0
 16 17  1  0
 17 18  1  0
  6 19  1  0
 19 20  2  0
 20  3  1  0
 18 12  1  0
M  END
>  <zinc_id>  (33) 
ZINC000000006016

>  <smiles>  (33) 
COc1ccc([C@@H](CN(C)C)C2(O)CCCCC2)cc1

$$$$

     RDKit          3D

 27 29  0  0  0  0  0  0  0  0999 V2000
    6.8084    1.4431   -0.3914 O   0  0  0  0  0  0  0  0  0  0  0  0
    6.1890    1.1640   -0.3998 C   0  0  0  0  0  0  0  0  0  0  0  0
    5.8415    0.2117   -1.3841 O   0  0  0  0  0  0  0  0  0  0  0  0
    5.1849    1.5754    0.6502 C   0  0  0  0  0  0  0  0  0  0  0  0
    3.8882    0.8992    0.5268 C   0  0  0  0  0  0  0  0  0  0  0  0
    4.0581   -0.5928    0.6532 C   0  0  0  0  0  0  0  0  0  0  0  0
    2.7974   -1.2935    0.5350 N   0  0  0  0  0  0  0  0  0  0  0  0
    2.2217   -1.2329   -0.7729 C   0  0  0  0  0  0  0  0  0  0  0  0
    1.5293    0.0558   -1.0763 C   0  0  0  0  0  0  0  0  0  0  0  0
    0.4589    0.2940   -0.0297 C   0  0  0  0  0  0  0  0  0  0  0  0
   -0.4195   -0.7429   -0.0079 O   0  0  0  0  0  0  0  0  0  0  0  0
   -1.4332   -0.4330    1.0219 C   0  0  1  0  0  0  0  0  0  0  0  0
   -2.1625    0.7337    0.3455 C   0  0  0  0  0  0  0  0  0  0  0  0
   -3.5000    0.8376    0.1897 C   0  0  0  0  0  0  0  0  0  0  0  0
   -4.1608    1.8871   -0.3849 C   0  0  0  0  0  0  0  0  0  0  0  0
   -3.4041    2.9355   -0.8488 C   0  0  0  0  0  0  0  0  0  0  0  0
   -4.2643    4.2752   -1.5829 Cl  0  0  0  0  0  0  0  0  0  0  0  0
   -2.0337    2.9004   -0.7249 C   0  0  0  0  0  0  0  0  0  0  0  0
   -1.4361    1.7895   -0.1246 C   0  0  0  0  0  0  0  0  0  0  0  0
   -2.3689   -1.6422    0.7514 C   0  0  0  0  0  0  0  0  0  0  0  0
   -1.8773   -2.8701    0.4037 C   0  0  0  0  0  0  0  0  0  0  0  0
   -2.7111   -3.9416    0.2011 C   0  0  0  0  0  0  0  0  0  0  0  0
   -4.0685   -3.7335    0.3616 C   0  0  0  0  0  0  0  0  0  0  0  0
   -4.5677   -2.4876    0.7145 C   0  0  0  0  0  0  0  0  0  0  0  0
   -3.6609   -1.5045    0.8891 N   0  0  0  0  0  0  0  0  0  0  0  0
    1.1532    0.3593    1.3280 C   0  0  0  0  0  0  0  0  0  0  0  0
    1.9375   -0.8868    1.6008 C   0  0  0  0  0  0  0  0  0  0  0  0
  1  2  2  0
  2  3  1  0
  2  4  1  0
  4  5  1  0
  5  6  1  0
  6  7  1  0
  7  8  1  0
  8  9  1  0
  9 10  1  0
 10 11  1  0
 12 11  1  6
 12 13  1  0
 13 14  2  0
 14 15  1  0
 15 16  2  0
 16 17  1  0
 16 18  1  0
 18 19  2  0
 12 20  1  0
 20 21  2  0
 21 22  1  0
 22 23  2  0
 23 24  1  0
 24 25  2  0
 10 26  1  0
 26 27  1  0
 27  7  1  0
 19 13  1  0
 25 20  1  0
M  END
>  <zinc_id>  (34) 
ZINC000000602128

>  <smiles>  (34) 
O=C(O)CCCN1CCC(O[C@@H](c2ccc(Cl)cc2)c2ccccn2)CC1

$$$$

     RDKit          3D

 27 29  0  0  0  0  0  0  0  0999 V2000
   -2.5303    4.5283   -1.2209 C   0  0  0  0  0  0  0  0  0  0  0  0
   -1.5061    3.8433   -0.5970 O   0  0  0  0  0  0  0  0  0  0  0  0
   -1.0646    2.6054   -1.0363 C   0  0  0  0  0  0  0  0  0  0  0  0
   -1.6514    2.1335   -2.0431 O   0  0  0  0  0  0  0  0  0  0  0  0
    0.0206    1.9370   -0.3323 C   0  0  0  0  0  0  0  0  0  0  0  0
    0.5497    2.5188    0.6932 C   0  0  0  0  0  0  0  0  0  0  0  0
    0.0682    3.8767    1.1661 C   0  0  0  0  0  0  0  0  0  0  0  0
    1.5636    1.8641    1.4443 N   0  0  0  0  0  0  0  0  0  0  0  0
    1.9487    0.5808    1.0228 C   0  0  0  0  0  0  0  0  0  0  0  0
    3.0121   -0.1207    1.8196 C   0  0  0  0  0  0  0  0  0  0  0  0
    1.4598   -0.0507   -0.0017 C   0  0  0  0  0  0  0  0  0  0  0  0
    1.9294   -1.3864   -0.3409 C   0  0  0  0  0  0  0  0  0  0  0  0
    1.5355   -2.0874   -1.3039 O   0  0  0  0  0  0  0  0  0  0  0  0
    2.9177   -2.0342    0.4268 O   0  0  0  0  0  0  0  0  0  0  0  0
    3.3893   -3.3273    0.1190 C   0  0  0  0  0  0  0  0  0  0  0  0
    4.4217   -3.8360    1.0354 C   0  0  0  0  0  0  0  0  0  0  0  0
    2.3223   -4.2888   -0.2698 C   0  0  0  0  0  0  0  0  0  0  0  0
    0.4534    0.6127   -0.9624 C   0  0  1  0  0  0  0  0  0  0  0  0
   -0.8401   -0.2668   -0.8231 C   0  0  0  0  0  0  0  0  0  0  0  0
   -1.1895   -0.9548   -1.9948 C   0  0  0  0  0  0  0  0  0  0  0  0
   -2.3140   -1.7225   -1.9369 C   0  0  0  0  0  0  0  0  0  0  0  0
   -3.0914   -1.8377   -0.7970 C   0  0  0  0  0  0  0  0  0  0  0  0
   -2.7037   -1.1390    0.3314 C   0  0  0  0  0  0  0  0  0  0  0  0
   -3.2114   -1.0261    1.5681 N   0  0  0  0  0  0  0  0  0  0  0  0
   -2.4506   -0.2404    2.2301 O   0  0  0  0  0  0  0  0  0  0  0  0
   -1.4684    0.1734    1.5033 N   0  0  0  0  0  0  0  0  0  0  0  0
   -1.5707   -0.3553    0.3000 C   0  0  0  0  0  0  0  0  0  0  0  0
  1  2  1  0
  2  3  1  0
  3  4  2  0
  3  5  1  0
  5  6  2  0
  6  7  1  0
  6  8  1  0
  8  9  1  0
  9 10  1  0
  9 11  2  0
 11 12  1  0
 12 13  2  0
 12 14  1  0
 14 15  1  0
 15 16  1  0
 15 17  1  0
 11 18  1  0
 18 19  1  1
 19 20  2  0
 20 21  1  0
 21 22  2  0
 22 23  1  0
 23 24  2  0
 24 25  1  0
 25 26  1  0
 26 27  2  0
 18  5  1  0
 27 19  1  0
 27 23  1  0
M  END
>  <zinc_id>  (35) 
ZINC000000607939

>  <smiles>  (35) 
COC(=O)C1=C(C)NC(C)=C(C(=O)OC(C)C)[C@H]1c1cccc2nonc12

$$$$

     RDKit          3D

 29 32  0  0  0  0  0  0  0  0999 V2000
   -4.7751    0.0610   -0.6000 C   0  0  0  0  0  0  0  0  0  0  0  0
   -3.5064   -0.6792   -0.3716 C   0  0  0  0  0  0  0  0  0  0  0  0
   -3.5313   -2.0545   -0.3295 C   0  0  0  0  0  0  0  0  0  0  0  0
   -4.5962   -2.7070   -0.4793 O   0  0  0  0  0  0  0  0  0  0  0  0
   -2.3233   -2.6920   -0.1139 C   0  0  0  0  0  0  0  0  0  0  0  0
   -2.2678   -4.0621   -0.0584 C   0  0  0  0  0  0  0  0  0  0  0  0
   -1.0401   -4.6529    0.1594 C   0  0  0  0  0  0  0  0  0  0  0  0
    0.0939   -3.8784    0.3157 C   0  0  0  0  0  0  0  0  0  0  0  0
    0.0616   -2.5010    0.2639 C   0  0  0  0  0  0  0  0  0  0  0  0
    1.2623   -1.6890    0.4233 C   0  0  0  0  0  0  0  0  0  0  0  0
    2.3547   -2.2748    0.6286 O   0  0  0  0  0  0  0  0  0  0  0  0
    1.2888   -0.3108    0.3642 O   0  0  0  0  0  0  0  0  0  0  0  0
    2.4755    0.4534    0.5234 C   0  0  0  0  0  0  0  0  0  0  0  0
    3.5016    0.0635   -0.5326 C   0  0  0  0  0  0  0  0  0  0  0  0
    4.7189    0.8300   -0.3994 N   0  0  0  0  0  0  0  0  0  0  0  0
    4.4041    2.2033   -0.7629 C   0  0  0  0  0  0  0  0  0  0  0  0
    5.5455    3.1359   -0.3970 C   0  0  0  0  0  0  0  0  0  0  0  0
    5.8264    3.0845    1.0912 C   0  0  0  0  0  0  0  0  0  0  0  0
    4.8710    2.0661    1.7083 C   0  0  0  0  0  0  0  0  0  0  0  0
    5.1267    0.7434    0.9966 C   0  0  0  0  0  0  0  0  0  0  0  0
   -1.1927   -1.9205    0.0422 C   0  0  0  0  0  0  0  0  0  0  0  0
   -1.2078   -0.6138   -0.0038 O   0  0  0  0  0  0  0  0  0  0  0  0
   -2.3345    0.0197   -0.2063 C   0  0  0  0  0  0  0  0  0  0  0  0
   -2.3757    1.4978   -0.2625 C   0  0  0  0  0  0  0  0  0  0  0  0
   -1.2530    2.2705   -0.1018 C   0  0  0  0  0  0  0  0  0  0  0  0
   -1.3428    3.6510   -0.1625 C   0  0  0  0  0  0  0  0  0  0  0  0
   -2.5386    4.3003   -0.3825 C   0  0  0  0  0  0  0  0  0  0  0  0
   -3.6714    3.5184   -0.5445 C   0  0  0  0  0  0  0  0  0  0  0  0
   -3.5743    2.1371   -0.4825 C   0  0  0  0  0  0  0  0  0  0  0  0
  1  2  1  0
  2  3  1  0
  3  4  2  0
  3  5  1  0
  5  6  2  0
  6  7  1  0
  7  8  2  0
  8  9  1  0
  9 10  1  0
 10 11  2  0
 10 12  1  0
 12 13  1  0
 13 14  1  0
 14 15  1  0
 15 16  1  0
 16 17  1  0
 17 18  1  0
 18 19  1  0
 19 20  1  0
  9 21  2  0
 21 22  1  0
 22 23  1  0
 23 24  1  0
 24 25  2  0
 25 26  1  0
 26 27  2  0
 27 28  1  0
 28 29  2  0
 23  2  2  0
 29 24  1  0
 21  5  1  0
 20 15  1  0
M  END
>  <zinc_id>  (36) 
ZINC000000608382

>  <smiles>  (36) 
Cc1c(-c2ccccc2)oc2c(C(=O)OCCN3CCCCC3)cccc2c1=O

$$$$

     RDKit          3D

 23 25  0  0  0  0  0  0  0  0999 V2000
   -7.1649    1.8960    1.5405 O   0  0  0  0  0  0  0  0  0  0  0  0
   -6.4695    0.9814    1.0369 C   0  0  0  0  0  0  0  0  0  0  0  0
   -5.6031    1.0261   -0.1423 C   0  0  0  0  0  0  0  0  0  0  0  0
   -4.6377   -0.0264    0.0946 N   0  0  0  0  0  0  0  0  0  0  0  0
   -3.3663   -0.0381   -0.4794 N   0  0  0  0  0  0  0  0  0  0  0  0
   -2.2716   -0.0251    0.1826 C   0  0  0  0  0  0  0  0  0  0  0  0
   -0.9545   -0.0378   -0.4377 C   0  0  0  0  0  0  0  0  0  0  0  0
   -0.6132   -0.0646   -1.7704 C   0  0  0  0  0  0  0  0  0  0  0  0
    0.7613   -0.0661   -1.8345 C   0  0  0  0  0  0  0  0  0  0  0  0
    1.2050   -0.0402   -0.5330 C   0  0  0  0  0  0  0  0  0  0  0  0
    2.6349   -0.0330   -0.1588 C   0  0  0  0  0  0  0  0  0  0  0  0
    3.0205   -0.0066    1.1628 C   0  0  0  0  0  0  0  0  0  0  0  0
    4.3665    0.0003    1.5217 C   0  0  0  0  0  0  0  0  0  0  0  0
    5.3559   -0.0191    0.5619 C   0  0  0  0  0  0  0  0  0  0  0  0
    6.7381   -0.0122    0.9199 N   0  0  0  0  0  0  0  0  0  0  0  0
    7.0977    0.0117    2.1142 O   0  0  0  0  0  0  0  0  0  0  0  0
    7.6689   -0.0325   -0.0810 O   0  0  0  0  0  0  0  0  0  0  0  0
    4.9642   -0.0455   -0.7585 C   0  0  0  0  0  0  0  0  0  0  0  0
    3.6239   -0.0523   -1.1154 C   0  0  0  0  0  0  0  0  0  0  0  0
    0.1686   -0.0245    0.2391 O   0  0  0  0  0  0  0  0  0  0  0  0
   -5.2617   -0.9462    0.9730 C   0  0  0  0  0  0  0  0  0  0  0  0
   -4.8494   -2.1156    1.1768 O   0  0  0  0  0  0  0  0  0  0  0  0
   -6.4138   -0.3299    1.5734 N   0  0  0  0  0  0  0  0  0  0  0  0
  1  2  2  0
  2  3  1  0
  3  4  1  0
  4  5  1  0
  5  6  2  0
  6  7  1  0
  7  8  2  0
  8  9  1  0
  9 10  2  0
 10 11  1  0
 11 12  2  0
 12 13  1  0
 13 14  2  0
 14 15  1  0
 15 16  2  0
 15 17  1  0
 14 18  1  0
 18 19  2  0
 10 20  1  0
  4 21  1  0
 21 22  2  0
 21 23  1  0
 23  2  1  0
 20  7  1  0
 19 11  1  0
M  CHG  2  15   1  17  -1
M  END
>  <zinc_id>  (37) 
ZINC000002568036

>  <smiles>  (37) 
O=C1CN(/N=C/c2ccc(-c3ccc([N+](=O)[O-])cc3)o2)C(=O)N1

$$$$

     RDKit          3D

 20 21  0  0  0  0  0  0  0  0999 V2000
   -2.1434   -0.3432    1.4579 N   0  0  0  0  0  0  0  0  0  0  0  0
   -1.6905   -0.3951    0.1062 C   0  0  0  0  0  0  0  0  0  0  0  0
   -2.5934   -0.4854   -0.9189 C   0  0  0  0  0  0  0  0  0  0  0  0
   -4.0394   -0.5363   -0.6516 C   0  0  0  0  0  0  0  0  0  0  0  0
   -4.6508    0.7504   -0.2991 C   0  0  0  0  0  0  0  0  0  0  0  0
   -3.9325    1.7823   -0.2265 O   0  0  0  0  0  0  0  0  0  0  0  0
   -6.0064    0.9075   -0.0349 O   0  0  0  0  0  0  0  0  0  0  0  0
   -2.0959   -0.5382   -2.2085 C   0  0  0  0  0  0  0  0  0  0  0  0
   -0.7341   -0.5017   -2.4550 C   0  0  0  0  0  0  0  0  0  0  0  0
    0.1378   -0.4126   -1.3942 C   0  0  0  0  0  0  0  0  0  0  0  0
   -0.3158   -0.3570   -0.0863 C   0  0  0  0  0  0  0  0  0  0  0  0
    0.6010   -0.2727    1.0368 C   0  0  0  0  0  0  0  0  0  0  0  0
    0.1209   -0.2084    2.1884 O   0  0  0  0  0  0  0  0  0  0  0  0
    2.0353   -0.2694    0.8306 C   0  0  0  0  0  0  0  0  0  0  0  0
    2.5760    0.1149   -0.4058 C   0  0  0  0  0  0  0  0  0  0  0  0
    3.9298    0.1028   -0.6435 C   0  0  0  0  0  0  0  0  0  0  0  0
    4.8102   -0.2938    0.3241 C   0  0  0  0  0  0  0  0  0  0  0  0
    6.7048   -0.3526    0.0446 Br  0  0  0  0  0  0  0  0  0  0  0  0
    4.3227   -0.6760    1.5533 C   0  0  0  0  0  0  0  0  0  0  0  0
    2.9638   -0.6581    1.7825 C   0  0  0  0  0  0  0  0  0  0  0  0
  1  2  1  0
  2  3  2  0
  3  4  1  0
  4  5  1  0
  5  6  2  0
  5  7  1  0
  3  8  1  0
  8  9  2  0
  9 10  1  0
 10 11  2  0
 11 12  1  0
 12 13  2  0
 12 14  1  0
 14 15  2  0
 15 16  1  0
 16 17  2  0
 17 18  1  0
 17 19  1  0
 19 20  2  0
 11  2  1  0
 20 14  1  0
M  END
>  <zinc_id>  (38) 
ZINC000002570817

>  <smiles>  (38) 
Nc1c(CC(=O)O)cccc1C(=O)c1ccc(Br)cc1

$$$$

     RDKit          3D

 25 26  0  0  0  0  0  0  0  0999 V2000
    6.7405    3.0495   -1.2911 C   0  0  0  0  0  0  0  0  0  0  0  0
    6.7258    1.7968   -0.6307 O   0  0  0  0  0  0  0  0  0  0  0  0
    5.4739    1.2194   -0.3393 C   0  0  0  0  0  0  0  0  0  0  0  0
    5.4860   -0.0038    0.3050 C   0  0  0  0  0  0  0  0  0  0  0  0
    4.2596   -0.5533    0.5821 C   0  0  0  0  0  0  0  0  0  0  0  0
    3.0375    0.0214    0.2675 C   0  0  0  0  0  0  0  0  0  0  0  0
    1.7457   -0.6282    0.5984 C   0  0  0  0  0  0  0  0  0  0  0  0
    1.4072   -1.5148   -0.7499 C   0  0  1  0  0  0  0  0  0  0  0  0
    2.7834   -2.4251   -0.6362 C   0  0  0  0  0  0  0  0  0  0  0  0
    0.5242   -2.5511    0.0061 N   0  0  0  0  0  0  0  0  0  0  0  0
   -0.6120   -1.8605    0.5012 C   0  0  0  0  0  0  0  0  0  0  0  0
   -1.5749   -1.5115   -0.7782 C   0  0  2  0  0  0  0  0  0  0  0  0
   -0.6117   -0.5918   -1.4891 O   0  0  0  0  0  0  0  0  0  0  0  0
   -2.4204   -0.3759   -0.0528 C   0  0  0  0  0  0  0  0  0  0  0  0
   -1.8703    0.6655    0.5515 C   0  0  0  0  0  0  0  0  0  0  0  0
   -2.7518    1.5862    1.1409 C   0  0  0  0  0  0  0  0  0  0  0  0
   -4.1113    1.4148    1.0930 C   0  0  0  0  0  0  0  0  0  0  0  0
   -5.0255    2.2886    1.6560 O   0  0  0  0  0  0  0  0  0  0  0  0
   -4.6199    0.2997    0.4432 C   0  0  0  0  0  0  0  0  0  0  0  0
   -6.0311    0.1029    0.3808 N   0  0  0  0  0  0  0  0  0  0  0  0
   -6.5200   -1.0578   -0.2877 C   0  0  0  0  0  0  0  0  0  0  0  0
   -5.6638   -1.8619   -0.7954 O   0  0  0  0  0  0  0  0  0  0  0  0
   -3.7571   -0.5918   -0.1279 C   0  0  0  0  0  0  0  0  0  0  0  0
    3.0784    1.2443   -0.3752 C   0  0  0  0  0  0  0  0  0  0  0  0
    4.3077    1.8385   -0.6759 C   0  0  0  0  0  0  0  0  0  0  0  0
  1  2  1  0
  2  3  1  0
  3  4  2  0
  4  5  1  0
  5  6  2  0
  6  7  1  0
  7  8  1  0
  8  9  1  1
  8 10  1  0
 10 11  1  0
 11 12  1  0
 12 13  1  6
 12 14  1  0
 14 15  2  0
 15 16  1  0
 16 17  2  0
 17 18  1  0
 17 19  1  0
 19 20  1  0
 20 21  1  0
 21 22  2  0
 19 23  2  0
  6 24  1  0
 24 25  2  0
 25  3  1  0
 23 14  1  0
M  END
>  <zinc_id>  (39) 
ZINC000002599970

>  <smiles>  (39) 
COc1ccc(C[C@@H](C)NC[C@H](O)c2ccc(O)c(NC=O)c2)cc1

$$$$

     RDKit          3D

 21 22  0  0  0  0  0  0  0  0999 V2000
   -2.1291    2.9708    0.9324 C   0  0  0  0  0  0  0  0  0  0  0  0
   -2.5723    1.6009    0.5890 C   0  0  0  0  0  0  0  0  0  0  0  0
   -3.2729    1.4536   -0.4495 O   0  0  0  0  0  0  0  0  0  0  0  0
   -2.2195    0.5025    1.4002 O   0  0  0  0  0  0  0  0  0  0  0  0
   -2.7141   -0.7409    0.9468 C   0  0  0  0  0  0  0  0  0  0  0  0
   -4.0393   -1.0732    1.2527 C   0  0  0  0  0  0  0  0  0  0  0  0
   -4.5262   -2.2827    0.8131 C   0  0  0  0  0  0  0  0  0  0  0  0
   -3.7452   -3.1499    0.0933 C   0  0  0  0  0  0  0  0  0  0  0  0
   -2.4603   -2.8053   -0.1916 C   0  0  0  0  0  0  0  0  0  0  0  0
   -1.9417   -1.6131    0.2281 C   0  0  0  0  0  0  0  0  0  0  0  0
   -0.5463   -1.2825   -0.0874 C   0  0  0  0  0  0  0  0  0  0  0  0
    0.1186   -2.0978   -0.7440 O   0  0  0  0  0  0  0  0  0  0  0  0
    0.1104   -0.0916    0.3030 N   0  0  0  0  0  0  0  0  0  0  0  0
    1.4628    0.1926   -0.0215 C   0  0  0  0  0  0  0  0  0  0  0  0
    2.3400   -0.5258   -0.7019 N   0  0  0  0  0  0  0  0  0  0  0  0
    3.5350   -0.0679   -0.8811 C   0  0  0  0  0  0  0  0  0  0  0  0
    3.8554    1.1491   -0.3596 C   0  0  0  0  0  0  0  0  0  0  0  0
    5.0943    1.8720   -0.4162 N   0  0  0  0  0  0  0  0  0  0  0  0
    6.0258    1.3279   -1.0248 O   0  0  0  0  0  0  0  0  0  0  0  0
    5.2602    3.0847    0.1570 O   0  0  0  0  0  0  0  0  0  0  0  0
    2.3642    1.5767    0.3839 S   0  0  0  0  0  0  0  0  0  0  0  0
  1  2  1  0
  2  3  2  0
  2  4  1  0
  4  5  1  0
  5  6  2  0
  6  7  1  0
  7  8  2  0
  8  9  1  0
  9 10  2  0
 10 11  1  0
 11 12  2  0
 11 13  1  0
 13 14  1  0
 14 15  2  0
 15 16  1  0
 16 17  2  0
 17 18  1  0
 18 19  2  0
 18 20  1  0
 17 21  1  0
 10  5  1  0
 21 14  1  0
M  CHG  2  18   1  20  -1
M  END
>  <zinc_id>  (40) 
ZINC000003956788

>  <smiles>  (40) 
CC(=O)Oc1ccccc1C(=O)Nc1ncc([N+](=O)[O-])s1

$$$$

     RDKit          3D

 24 27  0  0  0  0  0  0  0  0999 V2000
   -4.4966    1.5385    1.6450 C   0  0  0  0  0  0  0  0  0  0  0  0
   -4.0126    0.7219    0.9671 C   0  0  0  0  0  0  0  0  0  0  0  0
   -3.3967   -0.2812    0.1484 C   0  0  2  0  0  0  0  0  0  0  0  0
   -4.3093   -0.6567   -0.8508 O   0  0  0  0  0  0  0  0  0  0  0  0
   -3.0795   -1.5652    0.8243 C   0  0  0  0  0  0  0  0  0  0  0  0
   -2.5164   -2.3289   -0.2969 C   0  0  0  0  0  0  0  0  0  0  0  0
   -1.7622   -1.2540   -1.2484 C   0  0  2  0  0  0  0  0  0  0  0  0
   -0.2501   -1.7020   -0.6607 C   0  0  2  0  0  0  0  0  0  0  0  0
   -0.4080   -1.4590    0.8927 C   0  0  0  0  0  0  0  0  0  0  0  0
    0.9101   -1.5512    1.4713 C   0  0  0  0  0  0  0  0  0  0  0  0
    2.0235   -1.0257    0.7461 C   0  0  0  0  0  0  0  0  0  0  0  0
    3.0883   -0.6406    1.4141 C   0  0  0  0  0  0  0  0  0  0  0  0
    4.2997   -0.0895    0.8429 C   0  0  0  0  0  0  0  0  0  0  0  0
    5.3932    0.0986    1.4591 N   0  0  0  0  0  0  0  0  0  0  0  0
    6.5138    0.6209    0.8851 O   0  0  0  0  0  0  0  0  0  0  0  0
    4.2034    0.2782   -0.6176 C   0  0  0  0  0  0  0  0  0  0  0  0
    2.7169    0.5371   -0.9080 C   0  0  0  0  0  0  0  0  0  0  0  0
    2.0329   -0.9221   -0.7861 C   0  0  2  0  0  0  0  0  0  0  0  0
    0.5240   -0.3323   -1.1814 C   0  0  2  0  0  0  0  0  0  0  0  0
    0.2763    0.7273   -0.0276 C   0  0  0  0  0  0  0  0  0  0  0  0
   -1.1647    0.9500   -0.0239 C   0  0  0  0  0  0  0  0  0  0  0  0
   -2.1215    0.0850   -0.4938 C   0  0  2  0  0  0  0  0  0  0  0  0
   -2.7068    0.9589   -1.6440 C   0  0  0  0  0  0  0  0  0  0  0  0
   -1.7574    1.5482   -2.5570 C   0  0  0  0  0  0  0  0  0  0  0  0
  1  2  3  0
  2  3  1  0
  3  4  1  6
  3  5  1  0
  5  6  1  0
  7  6  1  1
  7  8  1  0
  8  9  1  1
  9 10  1  0
 10 11  1  0
 11 12  2  0
 12 13  1  0
 13 14  2  3
 14 15  1  0
 13 16  1  0
 16 17  1  0
 18 17  1  1
 18 19  1  0
 19 20  1  1
 20 21  1  0
 21 22  1  0
 22 23  1  6
 23 24  1  0
 22  3  1  0
 22  7  1  0
 19  8  1  0
 18 11  1  0
M  END
>  <zinc_id>  (41) 
ZINC000256433955

>  <smiles>  (41) 
C#C[C@]1(O)CC[C@@H]2[C@@H]3CCC4=CC(=NO)CC[C@@H]4[C@@H]3CC[C@@]21CC

$$$$

     RDKit          3D

 37 41  0  0  0  0  0  0  0  0999 V2000
    5.3943   -0.7321    2.2820 C   0  0  0  0  0  0  0  0  0  0  0  0
    5.5151    0.1736    1.2313 C   0  0  0  0  0  0  0  0  0  0  0  0
    6.2606    1.3202    1.2451 N   0  0  0  0  0  0  0  0  0  0  0  0
    6.1282    1.9166    0.0734 N   0  0  0  0  0  0  0  0  0  0  0  0
    5.2956    1.1659   -0.7161 C   0  0  0  0  0  0  0  0  0  0  0  0
    4.9015    1.5107   -2.1106 C   0  0  0  0  0  0  0  0  0  0  0  0
    6.0047    1.1925   -3.1047 C   0  0  0  0  0  0  0  0  0  0  0  0
    4.5927    2.9986   -2.1617 C   0  0  0  0  0  0  0  0  0  0  0  0
    4.9524    0.1218    0.0313 N   0  0  0  0  0  0  0  0  0  0  0  0
    4.0480   -1.0133   -0.4298 C   0  0  2  0  0  0  0  0  0  0  0  0
    2.9887   -0.0930   -1.2319 C   0  0  0  0  0  0  0  0  0  0  0  0
    1.8454   -1.1509   -1.7499 C   0  0  1  0  0  0  0  0  0  0  0  0
    2.6911   -2.5376   -1.7613 C   0  0  0  0  0  0  0  0  0  0  0  0
    2.7552   -3.0831   -0.5524 C   0  0  0  0  0  0  0  0  0  0  0  0
    1.9773   -2.1894    0.5578 C   0  0  1  0  0  0  0  0  0  0  0  0
    3.1167   -1.0596    0.8972 C   0  0  0  0  0  0  0  0  0  0  0  0
    1.1202   -1.3205   -0.3995 N   0  0  0  0  0  0  0  0  0  0  0  0
   -0.0560   -1.9442   -0.6936 C   0  0  0  0  0  0  0  0  0  0  0  0
   -1.1657   -2.4084   -0.1530 C   0  0  0  0  0  0  0  0  0  0  0  0
   -2.3092   -1.6953    0.6297 C   0  0  2  0  0  0  0  0  0  0  0  0
   -2.7722   -0.6941   -0.4858 N   0  0  0  0  0  0  0  0  0  0  0  0
   -4.1428   -0.7111   -0.7956 C   0  0  0  0  0  0  0  0  0  0  0  0
   -4.9020   -1.5054   -0.1804 O   0  0  0  0  0  0  0  0  0  0  0  0
   -4.7705    0.1600   -1.8185 C   0  0  0  0  0  0  0  0  0  0  0  0
   -4.5407    1.6404   -1.4698 C   0  0  0  0  0  0  0  0  0  0  0  0
   -5.1103    1.7852   -0.0735 C   0  0  0  0  0  0  0  0  0  0  0  0
   -6.6119    1.8506   -0.2365 C   0  0  0  0  0  0  0  0  0  0  0  0
   -7.2672    1.2201    0.7978 F   0  0  0  0  0  0  0  0  0  0  0  0
   -6.9482    3.1964   -0.1623 F   0  0  0  0  0  0  0  0  0  0  0  0
   -7.0070    1.2825   -1.5813 C   0  0  0  0  0  0  0  0  0  0  0  0
   -6.2670   -0.0093   -1.8562 C   0  0  0  0  0  0  0  0  0  0  0  0
   -1.5516   -0.6794    1.5609 C   0  0  0  0  0  0  0  0  0  0  0  0
   -0.8886    0.3931    1.1692 C   0  0  0  0  0  0  0  0  0  0  0  0
   -0.2630    1.2203    2.0645 C   0  0  0  0  0  0  0  0  0  0  0  0
   -0.3326    0.9179    3.4037 C   0  0  0  0  0  0  0  0  0  0  0  0
   -1.0256   -0.2036    3.8122 C   0  0  0  0  0  0  0  0  0  0  0  0
   -1.6555   -1.0358    2.9097 C   0  0  0  0  0  0  0  0  0  0  0  0
  1  2  1  0
  2  3  2  0
  3  4  1  0
  4  5  2  0
  5  6  1  0
  6  7  1  0
  6  8  1  0
  5  9  1  0
 10  9  1  1
 10 11  1  0
 12 11  1  1
 12 13  1  0
 13 14  1  0
 15 14  1  6
 15 16  1  0
 15 17  1  0
 17 18  1  0
 18 19  1  0
 20 19  1  6
 20 21  1  0
 21 22  1  0
 22 23  2  0
 22 24  1  0
 24 25  1  0
 25 26  1  0
 26 27  1  0
 27 28  1  0
 27 29  1  0
 27 30  1  0
 30 31  1  0
 20 32  1  0
 32 33  2  0
 33 34  1  0
 34 35  2  0
 35 36  1  0
 36 37  2  0
  9  2  1  0
 16 10  1  0
 31 24  1  0
 37 32  1  0
 17 12  1  0
M  END
>  <zinc_id>  (42) 
ZINC000100003902

>  <smiles>  (42) 
Cc1nnc(C(C)C)n1[C@H]1C[C@@H]2CC[C@H](C1)N2CC[C@H](NC(=O)C1CCC(F)(F)CC1)c1ccccc1

$$$$

     RDKit          3D

 24 27  0  0  0  0  0  0  0  0999 V2000
    7.8924    1.0041    0.6897 C   0  0  0  0  0  0  0  0  0  0  0  0
    6.4362    1.1324    0.7893 N   0  0  0  0  0  0  0  0  0  0  0  0
    5.8697    0.0274    0.0501 C   0  0  0  0  0  0  0  0  0  0  0  0
    4.3774    0.1075    0.1176 C   0  0  0  0  0  0  0  0  0  0  0  0
    3.5815   -0.8245   -0.5029 C   0  0  0  0  0  0  0  0  0  0  0  0
    2.1961   -0.7824   -0.4619 C   0  0  0  0  0  0  0  0  0  0  0  0
    1.6131    0.2324    0.2270 C   0  0  0  0  0  0  0  0  0  0  0  0
    0.1413    0.3475    0.3180 C   0  0  0  0  0  0  0  0  0  0  0  0
   -0.5618    1.2948    0.9626 N   0  0  0  0  0  0  0  0  0  0  0  0
   -1.8778    1.0991    0.8429 C   0  0  0  0  0  0  0  0  0  0  0  0
   -3.0324    1.7289    1.2778 C   0  0  0  0  0  0  0  0  0  0  0  0
   -4.2982    1.2690    0.9797 C   0  0  0  0  0  0  0  0  0  0  0  0
   -5.4071    1.9360    1.4393 F   0  0  0  0  0  0  0  0  0  0  0  0
   -4.4151    0.1284    0.2124 C   0  0  0  0  0  0  0  0  0  0  0  0
   -3.2760   -0.5195   -0.2345 C   0  0  0  0  0  0  0  0  0  0  0  0
   -2.0123   -0.0405    0.0765 C   0  0  0  0  0  0  0  0  0  0  0  0
   -0.7606   -0.5300   -0.2647 C   0  0  0  0  0  0  0  0  0  0  0  0
   -0.4071   -1.7138   -1.0648 C   0  0  0  0  0  0  0  0  0  0  0  0
   -1.2874   -1.9490   -2.2496 C   0  0  0  0  0  0  0  0  0  0  0  0
   -2.6226   -2.4334   -1.8657 N   0  0  0  0  0  0  0  0  0  0  0  0
   -3.5648   -1.7168   -1.0390 C   0  0  0  0  0  0  0  0  0  0  0  0
   -4.7359   -2.1173   -0.9755 O   0  0  0  0  0  0  0  0  0  0  0  0
    2.3804    1.1870    0.8631 C   0  0  0  0  0  0  0  0  0  0  0  0
    3.7712    1.1325    0.8137 C   0  0  0  0  0  0  0  0  0  0  0  0
  1  2  1  0
  2  3  1  0
  3  4  1  0
  4  5  2  0
  5  6  1  0
  6  7  2  0
  7  8  1  0
  8  9  1  0
  9 10  1  0
 10 11  2  0
 11 12  1  0
 12 13  1  0
 12 14  2  0
 14 15  1  0
 15 16  2  0
 16 17  1  0
 17 18  1  0
 18 19  1  0
 19 20  1  0
 20 21  1  0
 21 22  2  0
  7 23  1  0
 23 24  2  0
 24  4  1  0
 17  8  2  0
 16 10  1  0
 21 15  1  0
M  END
>  <zinc_id>  (43) 
ZINC000000025958

>  <smiles>  (43) 
CNCc1ccc(-c2[nH]c3cc(F)cc4c3c2CCNC4=O)cc1

$$$$

     RDKit          3D

 29 32  0  0  0  0  0  0  0  0999 V2000
   -1.2544   -0.0681    0.5806 O   0  0  0  0  0  0  0  0  0  0  0  0
   -1.6516    0.3475   -0.7987 C   0  0  2  0  0  0  0  0  0  0  0  0
   -1.3998    1.9310   -0.5239 C   0  0  0  0  0  0  0  0  0  0  0  0
   -0.1546    2.1122   -0.2027 N   0  0  0  0  0  0  0  0  0  0  0  0
    0.8033    1.9353    0.6713 C   0  0  0  0  0  0  0  0  0  0  0  0
    2.1716    2.6454    0.0699 C   0  0  2  0  0  0  0  0  0  0  0  0
    2.2499    1.8080   -1.1661 O   0  0  0  0  0  0  0  0  0  0  0  0
    3.2292    1.7585    1.0635 C   0  0  1  0  0  0  0  0  0  0  0  0
    2.8386    0.2690    0.5756 C   0  0  0  0  0  0  0  0  0  0  0  0
    3.8340   -0.5673    1.3522 C   0  0  0  0  0  0  0  0  0  0  0  0
    5.1649   -0.3165    0.7276 C   0  0  0  0  0  0  0  0  0  0  0  0
    6.1627   -1.2662    0.7190 C   0  0  0  0  0  0  0  0  0  0  0  0
    7.3856   -1.0193    0.1392 C   0  0  0  0  0  0  0  0  0  0  0  0
    8.3005   -2.0007    0.1761 F   0  0  0  0  0  0  0  0  0  0  0  0
    7.5933    0.2131   -0.4397 C   0  0  0  0  0  0  0  0  0  0  0  0
    6.5917    1.1668   -0.4306 C   0  0  0  0  0  0  0  0  0  0  0  0
    5.3653    0.9213    0.1501 C   0  0  0  0  0  0  0  0  0  0  0  0
    4.4158    1.9027    0.1277 O   0  0  0  0  0  0  0  0  0  0  0  0
   -3.3037    0.4673   -0.3968 C   0  0  1  0  0  0  0  0  0  0  0  0
   -3.7659    0.2302   -1.9417 C   0  0  0  0  0  0  0  0  0  0  0  0
   -5.2713    0.3992   -1.7580 C   0  0  0  0  0  0  0  0  0  0  0  0
   -5.6887   -0.6515   -0.7794 C   0  0  0  0  0  0  0  0  0  0  0  0
   -7.0284   -0.9703   -0.7121 C   0  0  0  0  0  0  0  0  0  0  0  0
   -7.5471   -1.9090    0.1315 C   0  0  0  0  0  0  0  0  0  0  0  0
   -8.8709   -2.2039    0.1799 F   0  0  0  0  0  0  0  0  0  0  0  0
   -6.6456   -2.5744    0.9687 C   0  0  0  0  0  0  0  0  0  0  0  0
   -5.3002   -2.2590    0.9060 C   0  0  0  0  0  0  0  0  0  0  0  0
   -4.7905   -1.3067    0.0467 C   0  0  0  0  0  0  0  0  0  0  0  0
   -3.4336   -0.9943   -0.0112 O   0  0  0  0  0  0  0  0  0  0  0  0
  2  1  1  1
  2  3  1  0
  3  4  1  0
  4  5  1  0
  5  6  1  0
  6  7  1  6
  6  8  1  0
  8  9  1  6
  9 10  1  0
 10 11  1  0
 11 12  2  0
 12 13  1  0
 13 14  1  0
 13 15  2  0
 15 16  1  0
 16 17  2  0
 17 18  1  0
  2 19  1  0
 19 20  1  6
 20 21  1  0
 21 22  1  0
 22 23  2  0
 23 24  1  0
 24 25  1  0
 24 26  2  0
 26 27  1  0
 27 28  2  0
 28 29  1  0
 18  8  1  0
 29 19  1  0
 17 11  1  0
 28 22  1  0
M  END
>  <zinc_id>  (44) 
ZINC000000607986

>  <smiles>  (44) 
O[C@@H](CNC[C@@H](O)[C@H]1CCc2cc(F)ccc2O1)[C@H]1CCc2cc(F)ccc2O1

$$$$

     RDKit          3D

 21 21  0  0  0  0  0  0  0  0999 V2000
   -3.5855   -2.7367   -0.8944 C   0  0  0  0  0  0  0  0  0  0  0  0
   -3.6740   -2.1968    0.4714 N   0  0  0  0  0  0  0  0  0  0  0  0
   -3.7590   -0.7692    0.6549 C   0  0  0  0  0  0  0  0  0  0  0  0
   -4.7876   -0.1018    0.2065 C   0  0  0  0  0  0  0  0  0  0  0  0
   -4.8705    1.3062    0.3874 N   0  0  0  0  0  0  0  0  0  0  0  0
   -5.4738    1.9302   -0.5355 O   0  0  0  0  0  0  0  0  0  0  0  0
   -4.3568    1.9670    1.4499 O   0  0  0  0  0  0  0  0  0  0  0  0
   -2.7217   -0.0678    1.3281 N   0  0  0  0  0  0  0  0  0  0  0  0
   -1.4107   -0.7162    1.3609 C   0  0  0  0  0  0  0  0  0  0  0  0
   -0.8872   -0.7097   -0.0781 C   0  0  0  0  0  0  0  0  0  0  0  0
   -0.7893    1.0426   -0.5545 S   0  0  0  0  0  0  0  0  0  0  0  0
    0.4621    1.8752    0.4234 C   0  0  0  0  0  0  0  0  0  0  0  0
    1.8326    1.3236    0.0642 C   0  0  0  0  0  0  0  0  0  0  0  0
    2.6121    1.8671   -0.9218 C   0  0  0  0  0  0  0  0  0  0  0  0
    3.9915    0.8687   -0.8788 S   0  0  0  0  0  0  0  0  0  0  0  0
    3.5026   -0.1699    0.3759 C   0  0  0  0  0  0  0  0  0  0  0  0
    4.1945   -1.3494    1.0201 C   0  0  0  0  0  0  0  0  0  0  0  0
    5.5257   -1.4711    0.4813 N   0  0  0  0  0  0  0  0  0  0  0  0
    6.3376   -0.2924    0.7219 C   0  0  0  0  0  0  0  0  0  0  0  0
    5.5446   -1.8889   -0.9021 C   0  0  0  0  0  0  0  0  0  0  0  0
    2.3129    0.2890    0.7054 N   0  0  0  0  0  0  0  0  0  0  0  0
  1  2  1  0
  2  3  1  0
  3  4  2  0
  4  5  1  0
  5  6  2  0
  5  7  1  0
  3  8  1  0
  8  9  1  0
  9 10  1  0
 10 11  1  0
 11 12  1  0
 12 13  1  0
 13 14  2  0
 14 15  1  0
 15 16  1  0
 16 17  1  0
 17 18  1  0
 18 19  1  0
 18 20  1  0
 16 21  2  0
 21 13  1  0
M  CHG  2   5   1   7  -1
M  END
>  <zinc_id>  (45) 
ZINC000001530737

>  <smiles>  (45) 
CN/C(=C/[N+](=O)[O-])NCCSCc1csc(CN(C)C)n1

$$$$

     RDKit          3D

 11 11  0  0  0  0  0  0  0  0999 V2000
    2.5805    0.1206    1.0477 C   0  0  0  0  0  0  0  0  0  0  0  0
    2.7885    0.3881   -0.5507 C   0  0  2  0  0  0  0  0  0  0  0  0
    1.7381    1.5423   -0.6197 N   0  0  0  0  0  0  0  0  0  0  0  0
    1.7875   -0.8039   -0.9919 C   0  0  0  0  0  0  0  0  0  0  0  0
    0.4548   -0.5933   -0.4828 C   0  0  0  0  0  0  0  0  0  0  0  0
   -0.1154   -0.9661    0.6795 C   0  0  0  0  0  0  0  0  0  0  0  0
   -1.4234   -0.6464    0.9334 C   0  0  0  0  0  0  0  0  0  0  0  0
   -2.2364    0.0507    0.0681 C   0  0  0  0  0  0  0  0  0  0  0  0
   -3.5614    0.3633    0.3485 O   0  0  0  0  0  0  0  0  0  0  0  0
   -1.6639    0.4374   -1.1243 C   0  0  0  0  0  0  0  0  0  0  0  0
   -0.3490    0.1073   -1.3617 C   0  0  0  0  0  0  0  0  0  0  0  0
  2  1  1  1
  2  3  1  0
  2  4  1  0
  4  5  1  0
  5  6  2  0
  6  7  1  0
  7  8  2  0
  8  9  1  0
  8 10  1  0
 10 11  2  0
 11  5  1  0
M  END
>  <zinc_id>  (46) 
ZINC000001690604

>  <smiles>  (46) 
C[C@H](N)Cc1ccc(O)cc1

$$$$

     RDKit          3D

 28 31  0  0  0  0  0  0  0  0999 V2000
   -5.9901    2.2566   -2.4638 C   0  0  0  0  0  0  0  0  0  0  0  0
   -5.3092    1.2648   -1.6766 N   0  0  0  0  0  0  0  0  0  0  0  0
   -5.8943    0.0870   -1.1743 C   0  0  0  0  0  0  0  0  0  0  0  0
   -7.1053   -0.1247   -1.4271 O   0  0  0  0  0  0  0  0  0  0  0  0
   -5.1551   -0.8859   -0.3801 C   0  0  0  0  0  0  0  0  0  0  0  0
   -5.7964   -2.0188    0.0788 C   0  0  0  0  0  0  0  0  0  0  0  0
   -5.1236   -2.9587    0.8332 C   0  0  0  0  0  0  0  0  0  0  0  0
   -3.8060   -2.7774    1.1366 C   0  0  0  0  0  0  0  0  0  0  0  0
   -3.1496   -1.6524    0.6869 C   0  0  0  0  0  0  0  0  0  0  0  0
   -3.8246   -0.7236   -0.0617 C   0  0  0  0  0  0  0  0  0  0  0  0
   -2.9851    0.7190   -0.6390 S   0  0  0  0  0  0  0  0  0  0  0  0
   -1.2856    0.7670   -0.1398 C   0  0  0  0  0  0  0  0  0  0  0  0
   -0.2581    0.2291   -0.8878 C   0  0  0  0  0  0  0  0  0  0  0  0
    1.0590    0.3149   -0.4112 C   0  0  0  0  0  0  0  0  0  0  0  0
    1.3389    0.9239    0.7840 C   0  0  0  0  0  0  0  0  0  0  0  0
    2.4935    1.1400    1.4628 C   0  0  0  0  0  0  0  0  0  0  0  0
    3.8431    0.7544    1.0746 C   0  0  0  0  0  0  0  0  0  0  0  0
    4.1408    0.1224   -0.0236 C   0  0  0  0  0  0  0  0  0  0  0  0
    5.4851   -0.2689   -0.4236 C   0  0  0  0  0  0  0  0  0  0  0  0
    5.6256   -0.9348   -1.6225 C   0  0  0  0  0  0  0  0  0  0  0  0
    6.8857   -1.3433   -2.0745 C   0  0  0  0  0  0  0  0  0  0  0  0
    8.0050   -1.0775   -1.3124 C   0  0  0  0  0  0  0  0  0  0  0  0
    7.8223   -0.4111   -0.1228 C   0  0  0  0  0  0  0  0  0  0  0  0
    6.5941   -0.0271    0.2917 N   0  0  0  0  0  0  0  0  0  0  0  0
    2.1792    1.8033    2.6149 N   0  0  0  0  0  0  0  0  0  0  0  0
    0.8697    1.9869    2.6389 N   0  0  0  0  0  0  0  0  0  0  0  0
    0.3210    1.4601    1.5311 C   0  0  0  0  0  0  0  0  0  0  0  0
   -0.9801    1.3747    1.0589 C   0  0  0  0  0  0  0  0  0  0  0  0
  1  2  1  0
  2  3  1  0
  3  4  2  0
  3  5  1  0
  5  6  2  0
  6  7  1  0
  7  8  2  0
  8  9  1  0
  9 10  2  0
 10 11  1  0
 11 12  1  0
 12 13  2  0
 13 14  1  0
 14 15  2  0
 15 16  1  0
 16 17  1  0
 17 18  2  0
 18 19  1  0
 19 20  2  0
 20 21  1  0
 21 22  2  0
 22 23  1  0
 23 24  2  0
 16 25  2  0
 25 26  1  0
 26 27  1  0
 27 28  2  0
 10  5  1  0
 28 12  1  0
 27 15  1  0
 24 19  1  0
M  END
>  <zinc_id>  (47) 
ZINC000003816287

>  <smiles>  (47) 
CNC(=O)c1ccccc1Sc1ccc2c(/C=C/c3ccccn3)n[nH]c2c1

$$$$

     RDKit          3D

 10  9  0  0  0  0  0  0  0  0999 V2000
    1.9603   -1.5614   -0.3740 C   0  0  0  0  0  0  0  0  0  0  0  0
    1.9851   -0.8330    1.0345 C   0  0  1  0  0  0  0  0  0  0  0  0
    3.6572    0.0392    0.7915 S   0  0  0  0  0  0  0  0  0  0  0  0
    1.0646    0.3434    0.6838 C   0  0  0  0  0  0  0  0  0  0  0  0
    1.3672    1.5225    0.7354 O   0  0  0  0  0  0  0  0  0  0  0  0
   -0.2328   -0.0447    0.2738 N   0  0  0  0  0  0  0  0  0  0  0  0
   -1.2752    0.8585   -0.1035 C   0  0  0  0  0  0  0  0  0  0  0  0
   -2.4678    0.0862   -0.4641 C   0  0  0  0  0  0  0  0  0  0  0  0
   -2.4513   -1.1515   -0.4100 O   0  0  0  0  0  0  0  0  0  0  0  0
   -3.6075    0.7406   -0.8635 O   0  0  0  0  0  0  0  0  0  0  0  0
  2  1  1  6
  2  3  1  0
  2  4  1  0
  4  5  2  0
  4  6  1  0
  6  7  1  0
  7  8  1  0
  8  9  2  0
  8 10  1  0
M  END
>  <zinc_id>  (48) 
ZINC000003831551

>  <smiles>  (48) 
C[C@@H](S)C(=O)NCC(=O)O

$$$$

     RDKit          3D

 32 33  0  0  0  0  0  0  0  0999 V2000
    9.2224    0.3661    1.6108 O   0  0  0  0  0  0  0  0  0  0  0  0
    9.0770   -0.8496    0.9303 C   0  0  0  0  0  0  0  0  0  0  0  0
    7.7095   -0.9178    0.3633 C   0  0  0  0  0  0  0  0  0  0  0  0
    6.7976    0.1155    0.5362 C   0  0  0  0  0  0  0  0  0  0  0  0
    5.4986    0.0315   -0.0052 C   0  0  0  0  0  0  0  0  0  0  0  0
    4.7590    1.3258    0.3098 C   0  0  1  0  0  0  0  0  0  0  0  0
    4.1222    1.5636   -1.0085 O   0  0  0  0  0  0  0  0  0  0  0  0
    3.4217    0.8986    1.1054 C   0  0  0  0  0  0  0  0  0  0  0  0
    2.6880    2.0937    1.1141 N   0  0  0  0  0  0  0  0  0  0  0  0
    2.1674    2.5096   -0.0991 C   0  0  0  0  0  0  0  0  0  0  0  0
    1.0881    2.1042   -0.8283 C   0  0  0  0  0  0  0  0  0  0  0  0
    0.5018    0.9625   -1.3939 C   0  0  0  0  0  0  0  0  0  0  0  0
   -0.0159   -0.1405   -0.4270 C   0  0  0  0  0  0  0  0  0  0  0  0
   -1.0285    0.6292    0.5320 C   0  0  0  0  0  0  0  0  0  0  0  0
   -1.8618    1.3667   -0.4800 C   0  0  0  0  0  0  0  0  0  0  0  0
   -2.5422    0.4296   -1.2084 O   0  0  0  0  0  0  0  0  0  0  0  0
   -3.6349    0.0769   -0.3723 C   0  0  0  0  0  0  0  0  0  0  0  0
   -4.3445    1.4786   -0.2499 C   0  0  0  0  0  0  0  0  0  0  0  0
   -5.3387    1.4568    0.4558 O   0  0  0  0  0  0  0  0  0  0  0  0
   -6.4933    1.1995    0.8294 C   0  0  0  0  0  0  0  0  0  0  0  0
   -6.9499   -0.2064    0.5379 C   0  0  0  0  0  0  0  0  0  0  0  0
   -6.9716   -1.0945    1.6146 C   0  0  0  0  0  0  0  0  0  0  0  0
   -6.2191   -0.6282    3.1179 Cl  0  0  0  0  0  0  0  0  0  0  0  0
   -7.5075   -2.3056    1.3684 C   0  0  0  0  0  0  0  0  0  0  0  0
   -8.0036   -2.6530    0.1309 C   0  0  0  0  0  0  0  0  0  0  0  0
   -7.9719   -1.7581   -0.9409 C   0  0  0  0  0  0  0  0  0  0  0  0
   -7.4220   -0.5006   -0.6887 C   0  0  0  0  0  0  0  0  0  0  0  0
   -7.4422    0.6171   -2.0464 Cl  0  0  0  0  0  0  0  0  0  0  0  0
    5.1899   -1.0427   -0.6683 C   0  0  0  0  0  0  0  0  0  0  0  0
    6.0293   -2.0807   -0.8727 C   0  0  0  0  0  0  0  0  0  0  0  0
    7.2764   -2.0060   -0.3615 C   0  0  0  0  0  0  0  0  0  0  0  0
    8.1987   -3.0418   -0.5662 O   0  0  0  0  0  0  0  0  0  0  0  0
  1  2  1  0
  2  3  1  0
  3  4  2  0
  4  5  1  0
  5  6  1  0
  6  7  1  6
  6  8  1  0
  8  9  1  0
  9 10  1  0
 10 11  1  0
 11 12  1  0
 12 13  1  0
 13 14  1  0
 14 15  1  0
 15 16  1  0
 16 17  1  0
 17 18  1  0
 18 19  1  0
 19 20  1  0
 20 21  1  0
 21 22  2  0
 22 23  1  0
 22 24  1  0
 24 25  2  0
 25 26  1  0
 26 27  2  0
 27 28  1  0
  5 29  2  0
 29 30  1  0
 30 31  2  0
 31 32  1  0
 31  3  1  0
 27 21  1  0
M  END
>  <zinc_id>  (49) 
ZINC000003991624

>  <smiles>  (49) 
OCc1cc([C@@H](O)CNCCCCCCOCCOCc2c(Cl)cccc2Cl)ccc1O

$$$$

     RDKit          2D

 20 22  0  0  0  0  0  0  0  0999 V2000
    5.2109   -1.4212    0.0000 N   0  0  0  0  0  0  0  0  0  0  0  0
    4.0075   -0.5257    0.0000 C   0  0  0  0  0  0  0  0  0  0  0  0
    4.1813    0.9642    0.0000 N   0  0  0  0  0  0  0  0  0  0  0  0
    2.9779    1.8596    0.0000 C   0  0  0  0  0  0  0  0  0  0  0  0
    3.1517    3.3495    0.0000 F   0  0  0  0  0  0  0  0  0  0  0  0
    1.6007    1.2652    0.0000 N   0  0  0  0  0  0  0  0  0  0  0  0
    1.4269   -0.2247    0.0000 C   0  0  0  0  0  0  0  0  0  0  0  0
    2.6303   -1.1202    0.0000 C   0  0  0  0  0  0  0  0  0  0  0  0
    2.1505   -2.5414    0.0000 N   0  0  0  0  0  0  0  0  0  0  0  0
    0.6506   -2.5242    0.0000 C   0  0  0  0  0  0  0  0  0  0  0  0
    0.2034   -1.0925    0.0000 N   0  0  0  0  0  0  0  0  0  0  0  0
   -1.2178   -0.6127    0.0000 C   0  0  0  0  0  0  0  0  0  0  0  0
   -2.4413   -1.4805    0.0000 O   0  0  0  0  0  0  0  0  0  0  0  0
   -3.6447   -0.5850    0.0000 C   0  0  0  0  0  0  0  0  0  0  0  0
   -5.0765   -1.0322    0.0000 C   0  0  0  0  0  0  0  0  0  0  0  0
   -6.1796   -0.0159    0.0000 O   0  0  0  0  0  0  0  0  0  0  0  0
   -3.1649    0.8362    0.0000 C   0  0  0  0  0  0  0  0  0  0  0  0
   -4.0327    2.0597    0.0000 O   0  0  0  0  0  0  0  0  0  0  0  0
   -1.6650    0.8191    0.0000 C   0  0  0  0  0  0  0  0  0  0  0  0
   -0.7695    2.0225    0.0000 O   0  0  0  0  0  0  0  0  0  0  0  0
  1  2  1  0
  2  3  2  0
  3  4  1  0
  4  5  1  0
  4  6  2  0
  6  7  1  0
  7  8  2  0
  8  9  1  0
  9 10  2  0
 10 11  1  0
 12 11  1  6
 12 13  1  0
 13 14  1  0
 14 15  1  6
 15 16  1  0
 14 17  1  0
 17 18  1  1
 17 19  1  0
 19 20  1  6
  8  2  1  0
 19 12  1  0
 11  7  1  0
M  END
>  <zinc_id>  (50) 
ZINC000004216238

>  <smiles>  (50) 
Nc1nc(F)nc2c1ncn2[C@@H]1O[C@H](CO)[C@@H](O)[C@@H]1O

$$$$

     RDKit          3D

 65 73  0  0  0  0  0  0  0  0999 V2000
  -14.0368    2.2434    1.5440 C   0  0  0  0  0  0  0  0  0  0  0  0
  -13.4359    1.0930    1.2113 O   0  0  0  0  0  0  0  0  0  0  0  0
  -12.3201    1.0567    0.4199 C   0  0  0  0  0  0  0  0  0  0  0  0
  -11.8730    2.1870    0.0064 O   0  0  0  0  0  0  0  0  0  0  0  0
  -11.6727   -0.1410    0.0612 N   0  0  0  0  0  0  0  0  0  0  0  0
  -10.3974   -0.0129   -0.8445 C   0  0  2  0  0  0  0  0  0  0  0  0
   -9.6018    0.9279    0.0722 C   0  0  0  0  0  0  0  0  0  0  0  0
   -9.8569    0.6425    1.3321 O   0  0  0  0  0  0  0  0  0  0  0  0
   -8.7304    1.9416   -0.0890 N   0  0  0  0  0  0  0  0  0  0  0  0
   -8.0132    2.7531    0.9035 C   0  0  0  0  0  0  0  0  0  0  0  0
   -7.9275    4.1220    0.3552 C   0  0  0  0  0  0  0  0  0  0  0  0
   -8.4732    4.0617   -1.0141 C   0  0  0  0  0  0  0  0  0  0  0  0
   -8.2568    2.5170   -1.4446 C   0  0  1  0  0  0  0  0  0  0  0  0
   -6.7096    2.4142   -1.1922 C   0  0  0  0  0  0  0  0  0  0  0  0
   -6.0254    1.4339   -0.7166 N   0  0  0  0  0  0  0  0  0  0  0  0
   -4.7351    1.7638   -0.7027 C   0  0  0  0  0  0  0  0  0  0  0  0
   -3.5761    0.9655   -0.2872 C   0  0  0  0  0  0  0  0  0  0  0  0
   -3.6775   -0.3567    0.0898 C   0  0  0  0  0  0  0  0  0  0  0  0
   -2.6316   -1.1544    0.4869 C   0  0  0  0  0  0  0  0  0  0  0  0
   -1.3563   -0.5785    0.5110 C   0  0  0  0  0  0  0  0  0  0  0  0
   -1.1765    0.7061    0.1589 C   0  0  0  0  0  0  0  0  0  0  0  0
    0.1672    0.9242    0.3056 C   0  0  0  0  0  0  0  0  0  0  0  0
    0.7835   -0.2464    0.7466 C   0  0  0  0  0  0  0  0  0  0  0  0
   -0.1403   -1.1319    0.8680 N   0  0  0  0  0  0  0  0  0  0  0  0
    0.0488   -2.5314    1.4701 C   0  0  1  0  0  0  0  0  0  0  0  0
   -0.7304   -3.4302    0.4472 C   0  0  0  0  0  0  0  0  0  0  0  0
   -0.2339   -3.3686   -0.8123 C   0  0  0  0  0  0  0  0  0  0  0  0
   -0.7558   -4.1130   -1.8709 C   0  0  0  0  0  0  0  0  0  0  0  0
   -1.8106   -4.9174   -1.5599 C   0  0  0  0  0  0  0  0  0  0  0  0
   -2.3156   -4.9827   -0.2893 C   0  0  0  0  0  0  0  0  0  0  0  0
   -1.7554   -4.2129    0.7469 C   0  0  0  0  0  0  0  0  0  0  0  0
    1.4083   -2.8640    1.2934 O   0  0  0  0  0  0  0  0  0  0  0  0
    2.3889   -1.9515    1.2093 C   0  0  0  0  0  0  0  0  0  0  0  0
    3.7409   -2.3255    1.4078 C   0  0  0  0  0  0  0  0  0  0  0  0
    4.7732   -1.4355    1.3357 C   0  0  0  0  0  0  0  0  0  0  0  0
    6.1815   -1.8713    1.5106 C   0  0  0  0  0  0  0  0  0  0  0  0
    6.6888   -3.1457    1.5631 C   0  0  0  0  0  0  0  0  0  0  0  0
    8.0347   -3.0089    1.6891 N   0  0  0  0  0  0  0  0  0  0  0  0
    8.3600   -1.7009    1.7162 C   0  0  0  0  0  0  0  0  0  0  0  0
    9.8746   -1.4593    1.8579 C   0  0  2  0  0  0  0  0  0  0  0  0
    9.8698   -0.8253    3.3695 C   0  0  0  0  0  0  0  0  0  0  0  0
   11.0945    0.0297    3.2745 C   0  0  0  0  0  0  0  0  0  0  0  0
   10.8951    0.6976    1.9843 C   0  0  0  0  0  0  0  0  0  0  0  0
   10.1036   -0.1198    1.1246 N   0  0  0  0  0  0  0  0  0  0  0  0
    9.5811    0.0781   -0.1701 C   0  0  0  0  0  0  0  0  0  0  0  0
    8.9200   -0.7534   -0.8130 O   0  0  0  0  0  0  0  0  0  0  0  0
    9.9162    1.4947   -0.7881 C   0  0  1  0  0  0  0  0  0  0  0  0
    9.4630    1.2123   -2.2604 N   0  0  0  0  0  0  0  0  0  0  0  0
   10.4204    0.5497   -3.0074 C   0  0  0  0  0  0  0  0  0  0  0  0
   11.4636    0.2886   -2.4062 O   0  0  0  0  0  0  0  0  0  0  0  0
   10.3463    0.1503   -4.3319 O   0  0  0  0  0  0  0  0  0  0  0  0
   11.4410   -0.5250   -4.9280 C   0  0  0  0  0  0  0  0  0  0  0  0
    8.5032    2.2507   -0.4479 C   0  0  0  0  0  0  0  0  0  0  0  0
    8.7716    3.6346   -1.0759 C   0  0  0  0  0  0  0  0  0  0  0  0
    8.3824    2.3897    1.0357 C   0  0  0  0  0  0  0  0  0  0  0  0
    7.2583   -1.0735    1.6098 N   0  0  0  0  0  0  0  0  0  0  0  0
    4.4782   -0.1223    1.0582 C   0  0  0  0  0  0  0  0  0  0  0  0
    3.1642    0.3237    0.8474 C   0  0  0  0  0  0  0  0  0  0  0  0
    2.2002   -0.6148    0.9350 C   0  0  0  0  0  0  0  0  0  0  0  0
   -2.2990    1.4563   -0.2362 C   0  0  0  0  0  0  0  0  0  0  0  0
   -4.7145    3.0436   -1.2176 C   0  0  0  0  0  0  0  0  0  0  0  0
   -5.9638    3.4174   -1.5124 N   0  0  0  0  0  0  0  0  0  0  0  0
  -11.0522    1.0323   -1.8881 C   0  0  0  0  0  0  0  0  0  0  0  0
  -12.3292    0.2820   -2.3818 C   0  0  0  0  0  0  0  0  0  0  0  0
  -10.1385    0.8899   -3.1603 C   0  0  0  0  0  0  0  0  0  0  0  0
  1  2  1  0
  2  3  1  0
  3  4  2  0
  3  5  1  0
  6  5  1  1
  6  7  1  0
  7  8  2  0
  7  9  1  0
  9 10  1  0
 10 11  1  0
 11 12  1  0
 12 13  1  0
 13 14  1  1
 14 15  2  0
 15 16  1  0
 16 17  1  0
 17 18  2  0
 18 19  1  0
 19 20  2  0
 20 21  1  0
 21 22  1  0
 22 23  2  0
 23 24  1  0
 24 25  1  0
 25 26  1  1
 26 27  2  0
 27 28  1  0
 28 29  2  0
 29 30  1  0
 30 31  2  0
 25 32  1  0
 32 33  1  0
 33 34  2  0
 34 35  1  0
 35 36  1  0
 36 37  2  0
 37 38  1  0
 38 39  1  0
 40 39  1  6
 40 41  1  0
 41 42  1  0
 42 43  1  0
 43 44  1  0
 44 45  1  0
 45 46  2  0
 45 47  1  0
 47 48  1  6
 48 49  1  0
 49 50  2  0
 49 51  1  0
 51 52  1  0
 47 53  1  0
 53 54  1  0
 53 55  1  0
 39 56  2  0
 35 57  2  0
 57 58  1  0
 58 59  2  0
 21 60  2  0
 16 61  2  0
 61 62  1  0
  6 63  1  0
 63 64  1  0
 63 65  1  0
 13  9  1  0
 62 14  1  0
 60 17  1  0
 24 20  1  0
 31 26  1  0
 59 33  1  0
 59 23  1  0
 56 36  1  0
 44 40  1  0
M  END
>  <zinc_id>  (51) 
ZINC000150588351

>  <smiles>  (51) 
COC(=O)N[C@H](C(=O)N1CCC[C@H]1c1nc(-c2ccc3c(c2)O[C@@H](c2ccccc2)n2c-3cc3cc(-c4c[nH]c([C@@H]5CCCN5C(=O)[C@@H](NC(=O)OC)C(C)C)n4)ccc32)c[nH]1)C(C)C

$$$$

     RDKit          3D

 11 11  0  0  0  0  0  0  0  0999 V2000
    3.4515    1.7507   -0.3480 C   0  0  0  0  0  0  0  0  0  0  0  0
    3.0838    0.3756   -0.4592 N   0  0  0  0  0  0  0  0  0  0  0  0
    1.6900    0.4172    0.3538 C   0  0  2  0  0  0  0  0  0  0  0  0
    1.9874   -1.1551    0.9344 C   0  0  0  0  0  0  0  0  0  0  0  0
    0.8619   -0.2394   -0.9565 C   0  0  0  0  0  0  0  0  0  0  0  0
   -0.5200   -0.2739   -0.4717 C   0  0  0  0  0  0  0  0  0  0  0  0
   -1.3643    0.7242   -0.9463 C   0  0  0  0  0  0  0  0  0  0  0  0
   -2.6567    0.7756   -0.4965 C   0  0  0  0  0  0  0  0  0  0  0  0
   -3.1679   -0.0948    0.3946 C   0  0  0  0  0  0  0  0  0  0  0  0
   -2.3245   -1.1128    0.8835 C   0  0  0  0  0  0  0  0  0  0  0  0
   -1.0411   -1.1672    0.4377 C   0  0  0  0  0  0  0  0  0  0  0  0
  1  2  1  0
  2  3  1  0
  3  4  1  1
  3  5  1  0
  5  6  1  0
  6  7  2  0
  7  8  1  0
  8  9  2  0
  9 10  1  0
 10 11  2  0
 11  6  1  0
M  END
>  <zinc_id>  (52) 
ZINC000008466459

>  <smiles>  (52) 
CN[C@H](C)Cc1ccccc1

$$$$

     RDKit          3D

 58 62  0  0  0  0  0  0  0  0999 V2000
    0.7679    4.5344    1.8479 C   0  0  0  0  0  0  0  0  0  0  0  0
    1.1966    3.6270    1.8680 C   0  0  0  0  0  0  0  0  0  0  0  0
    0.3927    2.4988    1.0017 C   0  0  1  0  0  0  0  0  0  0  0  0
    0.5184    3.2324   -0.3175 O   0  0  0  0  0  0  0  0  0  0  0  0
   -0.1405    3.0989   -1.4028 C   0  0  0  0  0  0  0  0  0  0  0  0
    0.4124    2.7024   -2.4776 O   0  0  0  0  0  0  0  0  0  0  0  0
   -1.6419    3.3230   -1.8194 C   0  0  2  0  0  0  0  0  0  0  0  0
   -1.8638    4.6965   -0.9798 C   0  0  0  0  0  0  0  0  0  0  0  0
   -2.4109    2.3028   -0.8947 C   0  0  0  0  0  0  0  0  0  0  0  0
   -2.5667    2.3958    0.2292 O   0  0  0  0  0  0  0  0  0  0  0  0
   -2.9053    1.1557   -1.8481 C   0  0  2  0  0  0  0  0  0  0  0  0
   -4.2915    1.9333   -2.2544 C   0  0  0  0  0  0  0  0  0  0  0  0
   -3.6893    0.1342   -0.7345 C   0  0  1  0  0  0  0  0  0  0  0  0
   -4.6844   -0.3453   -1.7493 O   0  0  0  0  0  0  0  0  0  0  0  0
   -5.6050   -1.2325   -0.9568 C   0  0  2  0  0  0  0  0  0  0  0  0
   -6.4676   -1.5642   -2.1635 O   0  0  0  0  0  0  0  0  0  0  0  0
   -7.3968   -2.5734   -1.4877 C   0  0  2  0  0  0  0  0  0  0  0  0
   -8.1604   -2.9585   -2.8828 C   0  0  0  0  0  0  0  0  0  0  0  0
   -8.5063   -1.4013   -1.1105 C   0  0  0  0  0  0  0  0  0  0  0  0
   -7.7170   -1.0442    0.2614 C   0  0  2  0  0  0  0  0  0  0  0  0
   -8.7097    0.0496    0.7239 N   0  0  0  0  0  0  0  0  0  0  0  0
   -8.2268    0.5623    1.9705 C   0  0  0  0  0  0  0  0  0  0  0  0
   -8.9342    0.9742   -0.2973 C   0  0  0  0  0  0  0  0  0  0  0  0
   -6.6852    0.0572   -0.5378 C   0  0  1  0  0  0  0  0  0  0  0  0
   -5.9867    0.3440    0.7563 O   0  0  0  0  0  0  0  0  0  0  0  0
   -2.6942   -1.1340   -0.9126 C   0  0  2  0  0  0  0  0  0  0  0  0
   -2.2415   -1.1829   -2.3244 C   0  0  0  0  0  0  0  0  0  0  0  0
   -3.4376   -2.2979   -0.7207 O   0  0  0  0  0  0  0  0  0  0  0  0
   -2.6294   -3.4213   -0.8883 C   0  0  0  0  0  0  0  0  0  0  0  0
   -1.6333   -1.1393    0.0725 C   0  0  0  0  0  0  0  0  0  0  0  0
   -2.1282   -0.9480    1.5689 C   0  0  1  0  0  0  0  0  0  0  0  0
   -1.7042   -2.4274    2.0991 C   0  0  0  0  0  0  0  0  0  0  0  0
   -0.8605   -0.1909    2.1243 C   0  0  0  0  0  0  0  0  0  0  0  0
   -1.0562    0.6868    2.8776 O   0  0  0  0  0  0  0  0  0  0  0  0
    0.5473   -0.6775    1.6263 C   0  0  2  0  0  0  0  0  0  0  0  0
    0.7486   -1.6413    2.9721 C   0  0  0  0  0  0  0  0  0  0  0  0
    1.4338    0.5978    2.1764 C   0  0  1  0  0  0  0  0  0  0  0  0
    2.8543    0.1025    2.1665 N   0  0  0  0  0  0  0  0  0  0  0  0
    3.5178   -1.0751    2.4282 C   0  0  0  0  0  0  0  0  0  0  0  0
    3.9443   -1.9260    1.3961 C   0  0  0  0  0  0  0  0  0  0  0  0
    3.1998   -2.6191    0.3746 C   0  0  0  0  0  0  0  0  0  0  0  0
    4.1515   -3.4248   -0.5110 C   0  0  0  0  0  0  0  0  0  0  0  0
    5.1156   -2.5647   -1.1541 N   0  0  0  0  0  0  0  0  0  0  0  0
    5.0011   -1.9524   -2.3426 C   0  0  0  0  0  0  0  0  0  0  0  0
    6.1262   -1.2312   -2.5923 N   0  0  0  0  0  0  0  0  0  0  0  0
    6.9694   -1.3779   -1.5625 C   0  0  0  0  0  0  0  0  0  0  0  0
    8.2913   -0.8205   -1.3426 C   0  0  0  0  0  0  0  0  0  0  0  0
    8.8564    0.0132   -2.3035 C   0  0  0  0  0  0  0  0  0  0  0  0
   10.1309    0.5186   -2.0342 C   0  0  0  0  0  0  0  0  0  0  0  0
   10.8078    0.2224   -0.8910 C   0  0  0  0  0  0  0  0  0  0  0  0
   10.2483   -0.5765    0.0132 N   0  0  0  0  0  0  0  0  0  0  0  0
    9.0378   -1.0739   -0.2115 C   0  0  0  0  0  0  0  0  0  0  0  0
    6.3069   -2.2168   -0.6822 C   0  0  0  0  0  0  0  0  0  0  0  0
    3.5914    1.3092    1.8490 C   0  0  0  0  0  0  0  0  0  0  0  0
    4.7339    1.6813    2.2188 O   0  0  0  0  0  0  0  0  0  0  0  0
    2.8268    2.0949    1.0062 O   0  0  0  0  0  0  0  0  0  0  0  0
    1.6187    1.4469    0.8400 C   0  0  2  0  0  0  0  0  0  0  0  0
    1.6271    0.7428   -0.3810 C   0  0  0  0  0  0  0  0  0  0  0  0
  1  2  1  0
  3  2  1  1
  3  4  1  0
  4  5  1  0
  5  6  2  0
  5  7  1  0
  7  8  1  1
  7  9  1  0
  9 10  2  0
  9 11  1  0
 11 12  1  6
 11 13  1  0
 13 14  1  6
 15 14  1  6
 15 16  1  0
 16 17  1  0
 17 18  1  6
 17 19  1  0
 19 20  1  0
 20 21  1  1
 21 22  1  0
 21 23  1  0
 20 24  1  0
 24 25  1  1
 13 26  1  0
 26 27  1  6
 26 28  1  0
 28 29  1  0
 26 30  1  0
 30 31  1  0
 31 32  1  1
 31 33  1  0
 33 34  2  0
 33 35  1  0
 35 36  1  1
 35 37  1  0
 37 38  1  6
 38 39  1  0
 39 40  1  0
 40 41  1  0
 41 42  1  0
 42 43  1  0
 43 44  1  0
 44 45  2  0
 45 46  1  0
 46 47  1  0
 47 48  2  0
 48 49  1  0
 49 50  2  0
 50 51  1  0
 51 52  2  0
 46 53  2  0
 38 54  1  0
 54 55  2  0
 54 56  1  0
 56 57  1  0
 57 58  1  6
 57  3  1  0
 24 15  1  0
 57 37  1  0
 53 43  1  0
 52 47  1  0
M  END
>  <zinc_id>  (53) 
ZINC000009574770

>  <smiles>  (53) 
CC[C@H]1OC(=O)[C@H](C)C(=O)[C@H](C)[C@@H](O[C@@H]2O[C@H](C)C[C@H](N(C)C)[C@H]2O)[C@](C)(OC)C[C@@H](C)C(=O)[C@H](C)[C@H]2N(CCCCn3cnc(-c4cccnc4)c3)C(=O)O[C@]12C

$$$$

     RDKit          3D

 23 22  0  0  0  0  0  0  0  0999 V2000
   -8.4389    0.5998    0.8506 C   0  0  0  0  0  0  0  0  0  0  0  0
   -8.7750   -0.1486   -0.4087 C   0  0  0  0  0  0  0  0  0  0  0  0
   -8.0915    0.4228   -1.6069 C   0  0  0  0  0  0  0  0  0  0  0  0
   -6.5992    0.4171   -1.5356 C   0  0  0  0  0  0  0  0  0  0  0  0
   -6.0759    1.2214   -0.3584 C   0  0  0  0  0  0  0  0  0  0  0  0
   -4.5633    1.1764   -0.3421 C   0  0  0  0  0  0  0  0  0  0  0  0
   -4.1499   -0.2575   -0.2137 C   0  0  0  0  0  0  0  0  0  0  0  0
   -2.6721   -0.4714   -0.1829 C   0  0  0  0  0  0  0  0  0  0  0  0
   -1.9938    0.2289    0.9633 C   0  0  0  0  0  0  0  0  0  0  0  0
   -0.5128   -0.0481    0.9056 C   0  0  0  0  0  0  0  0  0  0  0  0
    0.0980    0.4133   -0.3223 N   0  0  0  0  0  0  0  0  0  0  0  0
    0.5123   -0.7143   -1.1713 C   0  0  0  0  0  0  0  0  0  0  0  0
   -0.7389    1.2698   -1.0997 C   0  0  0  0  0  0  0  0  0  0  0  0
    1.3499    1.0905    0.0507 C   0  0  0  0  0  0  0  0  0  0  0  0
    2.1958    0.0328    0.7470 C   0  0  0  0  0  0  0  0  0  0  0  0
    3.5071    0.6641    1.1607 C   0  0  0  0  0  0  0  0  0  0  0  0
    4.3303   -0.3917    1.8461 C   0  0  0  0  0  0  0  0  0  0  0  0
    4.6249   -1.5765    0.9582 C   0  0  0  0  0  0  0  0  0  0  0  0
    5.3922   -1.1632   -0.2767 C   0  0  0  0  0  0  0  0  0  0  0  0
    6.7121   -0.5297    0.1659 C   0  0  0  0  0  0  0  0  0  0  0  0
    7.5005   -0.1067   -1.0499 C   0  0  0  0  0  0  0  0  0  0  0  0
    7.8001   -1.3131   -1.9340 C   0  0  0  0  0  0  0  0  0  0  0  0
    8.5881   -0.8161   -3.1263 C   0  0  0  0  0  0  0  0  0  0  0  0
  1  2  1  0
  2  3  1  0
  3  4  1  0
  4  5  1  0
  5  6  1  0
  6  7  1  0
  7  8  1  0
  8  9  1  0
  9 10  1  0
 10 11  1  0
 11 12  1  0
 11 13  1  0
 11 14  1  0
 14 15  1  0
 15 16  1  0
 16 17  1  0
 17 18  1  0
 18 19  1  0
 19 20  1  0
 20 21  1  0
 21 22  1  0
 22 23  1  0
M  CHG  1  11   1
M  END
>  <zinc_id>  (54) 
ZINC000014881137

>  <smiles>  (54) 
CCCCCCCCCC[N+](C)(C)CCCCCCCCCC

$$$$

     RDKit          2D

 68 71  0  0  0  0  0  0  0  0999 V2000
    9.0874   -4.0019    0.0000 C   0  0  0  0  0  0  0  0  0  0  0  0
   10.0675   -2.8664    0.0000 O   0  0  0  0  0  0  0  0  0  0  0  0
    9.5743   -1.4498    0.0000 C   0  0  0  0  0  0  0  0  0  0  0  0
    8.1009   -1.1687    0.0000 C   0  0  0  0  0  0  0  0  0  0  0  0
    7.6076    0.2479    0.0000 C   0  0  0  0  0  0  0  0  0  0  0  0
    6.1342    0.5290    0.0000 C   0  0  0  0  0  0  0  0  0  0  0  0
    5.1540   -0.6065    0.0000 C   0  0  0  0  0  0  0  0  0  0  0  0
    5.6473   -2.0230    0.0000 C   0  0  0  0  0  0  0  0  0  0  0  0
    3.6806   -0.3253    0.0000 C   0  0  0  0  0  0  0  0  0  0  0  0
    3.8008    1.1698    0.0000 C   0  0  0  0  0  0  0  0  0  0  0  0
    3.5967    2.6559    0.0000 C   0  0  0  0  0  0  0  0  0  0  0  0
    5.0520    3.0194    0.0000 O   0  0  0  0  0  0  0  0  0  0  0  0
    3.0780    4.0633    0.0000 C   0  0  0  0  0  0  0  0  0  0  0  0
    4.4211    4.7312    0.0000 C   0  0  0  0  0  0  0  0  0  0  0  0
    2.2688    5.3264    0.0000 C   0  0  0  0  0  0  0  0  0  0  0  0
    1.2070    6.3859    0.0000 C   0  0  0  0  0  0  0  0  0  0  0  0
    2.1455    7.5560    0.0000 C   0  0  0  0  0  0  0  0  0  0  0  0
   -0.0577    7.1924    0.0000 C   0  0  0  0  0  0  0  0  0  0  0  0
    0.6073    8.5369    0.0000 O   0  0  0  0  0  0  0  0  0  0  0  0
   -1.4662    7.7082    0.0000 C   0  0  0  0  0  0  0  0  0  0  0  0
   -1.1058    9.1643    0.0000 O   0  0  0  0  0  0  0  0  0  0  0  0
   -2.1865   10.2045    0.0000 C   0  0  0  0  0  0  0  0  0  0  0  0
   -2.9527    7.9092    0.0000 C   0  0  0  0  0  0  0  0  0  0  0  0
   -2.9137    9.4086    0.0000 O   0  0  0  0  0  0  0  0  0  0  0  0
   -4.4477    7.7858    0.0000 C   0  0  0  0  0  0  0  0  0  0  0  0
   -4.7319    9.2587    0.0000 C   0  0  0  0  0  0  0  0  0  0  0  0
   -5.8811    7.3441    0.0000 C   0  0  0  0  0  0  0  0  0  0  0  0
   -7.1861    6.6044    0.0000 C   0  0  0  0  0  0  0  0  0  0  0  0
   -8.0625    7.8218    0.0000 C   0  0  0  0  0  0  0  0  0  0  0  0
   -8.3016    5.6016    0.0000 C   0  0  0  0  0  0  0  0  0  0  0  0
   -9.1754    4.3824    0.0000 C   0  0  0  0  0  0  0  0  0  0  0  0
   -9.7667    3.0038    0.0000 C   0  0  0  0  0  0  0  0  0  0  0  0
  -10.0478    1.5304    0.0000 C   0  0  0  0  0  0  0  0  0  0  0  0
  -10.0056    0.0310    0.0000 C   0  0  0  0  0  0  0  0  0  0  0  0
   -9.6421   -1.4243    0.0000 C   0  0  0  0  0  0  0  0  0  0  0  0
  -11.0495   -1.9430    0.0000 C   0  0  0  0  0  0  0  0  0  0  0  0
   -8.9742   -2.7674    0.0000 C   0  0  0  0  0  0  0  0  0  0  0  0
  -10.2372   -3.5765    0.0000 O   0  0  0  0  0  0  0  0  0  0  0  0
  -10.1680   -5.0749    0.0000 C   0  0  0  0  0  0  0  0  0  0  0  0
   -8.0332   -3.9355    0.0000 C   0  0  0  0  0  0  0  0  0  0  0  0
   -6.8631   -4.8740    0.0000 C   0  0  0  0  0  0  0  0  0  0  0  0
   -7.0180   -6.4147    0.0000 C   0  0  0  0  0  0  0  0  0  0  0  0
   -6.0560   -7.5657    0.0000 C   0  0  0  0  0  0  0  0  0  0  0  0
   -4.5783   -7.3081    0.0000 C   0  0  0  0  0  0  0  0  0  0  0  0
   -3.6164   -8.4591    0.0000 C   0  0  0  0  0  0  0  0  0  0  0  0
   -4.0625   -5.8996    0.0000 C   0  0  0  0  0  0  0  0  0  0  0  0
   -3.9653   -6.7800    0.0000 O   0  0  0  0  0  0  0  0  0  0  0  0
   -5.5186   -5.5391    0.0000 O   0  0  0  0  0  0  0  0  0  0  0  0
   -2.5630   -5.9386    0.0000 C   0  0  0  0  0  0  0  0  0  0  0  0
   -2.4397   -7.4335    0.0000 O   0  0  0  0  0  0  0  0  0  0  0  0
   -1.0902   -5.6544    0.0000 C   0  0  0  0  0  0  0  0  0  0  0  0
   -0.6484   -7.0879    0.0000 O   0  0  0  0  0  0  0  0  0  0  0  0
    0.2871   -5.0602    0.0000 N   0  0  0  0  0  0  0  0  0  0  0  0
    0.4374   -6.5527    0.0000 C   0  0  0  0  0  0  0  0  0  0  0  0
    1.8050   -7.1688    0.0000 C   0  0  0  0  0  0  0  0  0  0  0  0
    3.0224   -6.2924    0.0000 C   0  0  0  0  0  0  0  0  0  0  0  0
    2.8721   -4.7999    0.0000 C   0  0  0  0  0  0  0  0  0  0  0  0
    1.5044   -4.1838    0.0000 C   0  0  0  0  0  0  0  0  0  0  0  0
    2.5050   -3.0663    0.0000 C   0  0  0  0  0  0  0  0  0  0  0  0
    3.7242   -3.9401    0.0000 O   0  0  0  0  0  0  0  0  0  0  0  0
    3.2418   -1.7597    0.0000 O   0  0  0  0  0  0  0  0  0  0  0  0
    8.5878    1.3833    0.0000 C   0  0  0  0  0  0  0  0  0  0  0  0
   10.0612    1.1022    0.0000 C   0  0  0  0  0  0  0  0  0  0  0  0
   10.5545   -0.3144    0.0000 C   0  0  0  0  0  0  0  0  0  0  0  0
   12.0279   -0.5955    0.0000 O   0  0  0  0  0  0  0  0  0  0  0  0
   13.0080    0.5400    0.0000 C   0  0  0  0  0  0  0  0  0  0  0  0
   14.4815    0.2589    0.0000 C   0  0  0  0  0  0  0  0  0  0  0  0
   15.4616    1.3943    0.0000 O   0  0  0  0  0  0  0  0  0  0  0  0
  1  2  1  0
  3  2  1  6
  3  4  1  0
  4  5  1  0
  5  6  1  6
  6  7  1  0
  7  8  1  1
  7  9  1  0
  9 10  1  1
 10 11  1  0
 11 12  2  0
 11 13  1  0
 13 14  1  1
 13 15  1  0
 15 16  2  0
 16 17  1  0
 16 18  1  0
 18 19  1  6
 18 20  1  0
 20 21  1  6
 21 22  1  0
 20 23  1  0
 23 24  2  0
 23 25  1  0
 25 26  1  1
 25 27  1  0
 27 28  1  0
 28 29  1  1
 28 30  1  0
 30 31  2  0
 31 32  1  0
 32 33  2  0
 33 34  1  0
 34 35  2  0
 35 36  1  0
 35 37  1  0
 37 38  1  6
 38 39  1  0
 37 40  1  0
 41 40  1  1
 41 42  1  0
 42 43  1  0
 43 44  1  0
 44 45  1  6
 44 46  1  0
 46 47  1  6
 46 48  1  0
 46 49  1  0
 49 50  2  0
 49 51  1  0
 51 52  2  0
 51 53  1  0
 53 54  1  0
 54 55  1  0
 55 56  1  0
 56 57  1  0
 58 57  1  6
 58 59  1  0
 59 60  2  0
 59 61  1  0
  5 62  1  0
 62 63  1  0
 63 64  1  0
 64 65  1  1
 65 66  1  0
 66 67  1  0
 67 68  1  0
 64  3  1  0
 61  9  1  0
 48 41  1  0
 58 53  1  0
M  END
>  <zinc_id>  (55) 
ZINC000169677008

>  <smiles>  (55) 
CO[C@H]1C[C@@H]2CC[C@@H](C)[C@@](O)(O2)C(=O)C(=O)N2CCCC[C@H]2C(=O)O[C@H]([C@H](C)C[C@@H]2CC[C@@H](OCCO)[C@H](OC)C2)CC(=O)[C@H](C)/C=C(\C)[C@@H](O)[C@@H](OC)C(=O)[C@H](C)C[C@H](C)/C=C/C=C/C=C/1C

$$$$

     RDKit          3D

 32 36  0  0  0  0  0  0  0  0999 V2000
    2.3175    5.0419    2.3669 C   0  0  0  0  0  0  0  0  0  0  0  0
    1.3907    4.6750    1.3894 C   0  0  0  0  0  0  0  0  0  0  0  0
    1.4425    5.3365    0.3699 O   0  0  0  0  0  0  0  0  0  0  0  0
    0.4321    3.5588    1.6140 C   0  0  1  0  0  0  0  0  0  0  0  0
    0.6267    3.0880    2.9117 O   0  0  0  0  0  0  0  0  0  0  0  0
   -0.9293    4.2745    1.4745 C   0  0  0  0  0  0  0  0  0  0  0  0
   -1.5568    3.6940    0.1884 C   0  0  0  0  0  0  0  0  0  0  0  0
   -1.2231    2.2015    0.6797 C   0  0  1  0  0  0  0  0  0  0  0  0
   -1.1349    1.4238   -0.8300 C   0  0  2  0  0  0  0  0  0  0  0  0
   -2.7310    1.5133   -1.0950 C   0  0  0  0  0  0  0  0  0  0  0  0
   -2.8017    0.4150   -2.1861 C   0  0  0  0  0  0  0  0  0  0  0  0
   -2.7576   -0.8392   -1.3972 C   0  0  0  0  0  0  0  0  0  0  0  0
   -3.6638   -1.7706   -1.6219 C   0  0  0  0  0  0  0  0  0  0  0  0
   -3.6594   -3.0194   -0.8680 C   0  0  0  0  0  0  0  0  0  0  0  0
   -4.5221   -3.8918   -1.1024 O   0  0  0  0  0  0  0  0  0  0  0  0
   -2.6552   -3.2393    0.1480 C   0  0  0  0  0  0  0  0  0  0  0  0
   -1.5381   -2.3247    0.2963 C   0  0  0  0  0  0  0  0  0  0  0  0
   -1.7129   -0.9936   -0.3879 C   0  0  0  0  0  0  0  0  0  0  0  0
   -0.9878    0.0154   -0.1309 C   0  0  0  0  0  0  0  0  0  0  0  0
    0.1364   -0.0190    0.9955 C   0  0  1  0  0  0  0  0  0  0  0  0
    1.0785   -1.1091    0.4063 C   0  0  0  0  0  0  0  0  0  0  0  0
    1.4407   -1.2403   -0.8716 C   0  0  0  0  0  0  0  0  0  0  0  0
    2.3036   -2.2315   -1.3459 C   0  0  0  0  0  0  0  0  0  0  0  0
    2.8053   -3.1266   -0.4136 C   0  0  0  0  0  0  0  0  0  0  0  0
    3.7104   -4.1499   -0.8758 N   0  0  0  0  0  0  0  0  0  0  0  0
    5.1492   -4.0117   -0.7795 C   0  0  0  0  0  0  0  0  0  0  0  0
    3.1087   -5.3390   -1.4598 C   0  0  0  0  0  0  0  0  0  0  0  0
    2.4584   -3.0273    0.9077 C   0  0  0  0  0  0  0  0  0  0  0  0
    1.6017   -2.0125    1.2622 C   0  0  0  0  0  0  0  0  0  0  0  0
    0.9648    1.2840    0.5034 C   0  0  0  0  0  0  0  0  0  0  0  0
    0.3692    2.5253    0.5920 C   0  0  2  0  0  0  0  0  0  0  0  0
    0.5372    3.2984   -0.7402 C   0  0  0  0  0  0  0  0  0  0  0  0
  1  2  1  0
  2  3  2  0
  2  4  1  0
  4  5  1  1
  4  6  1  0
  6  7  1  0
  8  7  1  6
  8  9  1  0
  9 10  1  6
 10 11  1  0
 11 12  1  0
 12 13  2  0
 13 14  1  0
 14 15  2  0
 14 16  1  0
 16 17  1  0
 17 18  1  0
 18 19  2  0
 19 20  1  0
 20 21  1  6
 21 22  2  0
 22 23  1  0
 23 24  2  0
 24 25  1  0
 25 26  1  0
 25 27  1  0
 24 28  1  0
 28 29  2  0
 20 30  1  0
 30 31  1  0
 31 32  1  6
 31  4  1  0
 31  8  1  0
 19  9  1  0
 29 21  1  0
 18 12  1  0
M  END
>  <zinc_id>  (56) 
ZINC000034089131

>  <smiles>  (56) 
CC(=O)[C@@]1(O)CC[C@H]2[C@@H]3CCC4=CC(=O)CCC4=C3[C@@H](c3ccc(N(C)C)cc3)C[C@@]21C

$$$$

     RDKit          3D

 22 23  0  0  0  0  0  0  0  0999 V2000
   -5.6573    0.2403   -0.4987 C   0  0  0  0  0  0  0  0  0  0  0  0
   -5.2147    0.3864    1.0955 C   0  0  2  0  0  0  0  0  0  0  0  0
   -3.8256    0.9174    0.8203 N   0  0  0  0  0  0  0  0  0  0  0  0
   -3.0053    0.0613    0.0846 C   0  0  0  0  0  0  0  0  0  0  0  0
   -1.6611    0.5874   -0.1864 C   0  0  0  0  0  0  0  0  0  0  0  0
   -0.7116   -0.2363   -0.7162 C   0  0  0  0  0  0  0  0  0  0  0  0
    0.5622    0.2152   -0.9876 C   0  0  0  0  0  0  0  0  0  0  0  0
    0.9645    1.4989   -0.7502 C   0  0  0  0  0  0  0  0  0  0  0  0
    2.2302    2.0135   -0.9939 O   0  0  0  0  0  0  0  0  0  0  0  0
    3.3347    1.3603   -1.4939 C   0  0  0  0  0  0  0  0  0  0  0  0
    3.8527    0.2217   -0.6942 C   0  0  0  0  0  0  0  0  0  0  0  0
    4.9254   -0.4894   -1.1691 C   0  0  0  0  0  0  0  0  0  0  0  0
    5.4259   -1.5583   -0.4357 C   0  0  0  0  0  0  0  0  0  0  0  0
    4.8459   -1.8895    0.7516 C   0  0  0  0  0  0  0  0  0  0  0  0
    3.7637   -1.2073    1.2739 C   0  0  0  0  0  0  0  0  0  0  0  0
    3.1796   -1.5338    2.4469 F   0  0  0  0  0  0  0  0  0  0  0  0
    3.3102   -0.1586    0.5041 C   0  0  0  0  0  0  0  0  0  0  0  0
   -0.0164    2.3548   -0.2010 C   0  0  0  0  0  0  0  0  0  0  0  0
   -1.2912    1.9109    0.0723 C   0  0  0  0  0  0  0  0  0  0  0  0
   -4.9725   -1.1442    1.3612 C   0  0  0  0  0  0  0  0  0  0  0  0
   -6.0557   -1.7749    2.1245 N   0  0  0  0  0  0  0  0  0  0  0  0
   -3.9834   -1.7760    0.9873 O   0  0  0  0  0  0  0  0  0  0  0  0
  2  1  1  6
  2  3  1  0
  3  4  1  0
  4  5  1  0
  5  6  2  0
  6  7  1  0
  7  8  2  0
  8  9  1  0
  9 10  1  0
 10 11  1  0
 11 12  2  0
 12 13  1  0
 13 14  2  0
 14 15  1  0
 15 16  1  0
 15 17  2  0
  8 18  1  0
 18 19  2  0
  2 20  1  0
 20 21  1  0
 20 22  2  0
 19  5  1  0
 17 11  1  0
M  END
>  <zinc_id>  (57) 
ZINC000053084692

>  <smiles>  (57) 
C[C@H](NCc1ccc(OCc2cccc(F)c2)cc1)C(N)=O

$$$$

     RDKit          3D

 34 36  0  0  0  0  0  0  0  0999 V2000
   10.2950   -0.0953   -0.2163 C   0  0  0  0  0  0  0  0  0  0  0  0
    9.9129   -0.3258   -0.1965 C   0  0  0  0  0  0  0  0  0  0  0  0
    8.5497   -0.9472   -0.0124 C   0  0  0  0  0  0  0  0  0  0  0  0
    8.2430   -2.1252    0.4590 C   0  0  0  0  0  0  0  0  0  0  0  0
    9.2682   -3.1280    0.9308 C   0  0  0  0  0  0  0  0  0  0  0  0
    6.7825   -2.3819    0.4633 C   0  0  0  0  0  0  0  0  0  0  0  0
    6.2313   -1.1171   -0.0087 N   0  0  0  0  0  0  0  0  0  0  0  0
    4.8652   -0.7868   -0.1479 C   0  0  0  0  0  0  0  0  0  0  0  0
    4.0092   -1.6760    0.1313 O   0  0  0  0  0  0  0  0  0  0  0  0
    4.4419    0.4816   -0.5804 N   0  0  0  0  0  0  0  0  0  0  0  0
    3.0719    0.8688   -0.7484 C   0  0  0  0  0  0  0  0  0  0  0  0
    2.2249    0.7549    0.4876 C   0  0  0  0  0  0  0  0  0  0  0  0
    0.8303    1.1878    0.1695 C   0  0  0  0  0  0  0  0  0  0  0  0
    0.3720    2.4492    0.3695 C   0  0  0  0  0  0  0  0  0  0  0  0
   -0.9403    2.7815    0.0135 C   0  0  0  0  0  0  0  0  0  0  0  0
   -1.7511    1.8269   -0.5343 C   0  0  0  0  0  0  0  0  0  0  0  0
   -3.4124    2.1214   -1.0149 S   0  0  0  0  0  0  0  0  0  0  0  0
   -3.7397    1.3952   -2.2836 O   0  0  0  0  0  0  0  0  0  0  0  0
   -3.5845    3.5833   -1.2320 O   0  0  0  0  0  0  0  0  0  0  0  0
   -4.4500    1.5925    0.2628 N   0  0  0  0  0  0  0  0  0  0  0  0
   -5.1108    0.3343    0.1148 C   0  0  0  0  0  0  0  0  0  0  0  0
   -4.8878   -0.2973   -0.9511 O   0  0  0  0  0  0  0  0  0  0  0  0
   -5.9846   -0.2356    1.0760 N   0  0  0  0  0  0  0  0  0  0  0  0
   -6.5575   -1.6406    0.6165 C   0  0  1  0  0  0  0  0  0  0  0  0
   -7.3204   -1.9135    2.0624 C   0  0  0  0  0  0  0  0  0  0  0  0
   -8.2026   -0.7535    2.3205 C   0  0  0  0  0  0  0  0  0  0  0  0
   -9.6696   -1.0851    1.6545 C   0  0  1  0  0  0  0  0  0  0  0  0
   -9.7847    0.4177    0.9598 C   0  0  0  0  0  0  0  0  0  0  0  0
   -9.0551   -1.7594    0.2872 C   0  0  0  0  0  0  0  0  0  0  0  0
   -7.8779   -0.9656   -0.1241 C   0  0  0  0  0  0  0  0  0  0  0  0
   -1.2641    0.5468   -0.7296 C   0  0  0  0  0  0  0  0  0  0  0  0
    0.0062    0.2375   -0.3817 C   0  0  0  0  0  0  0  0  0  0  0  0
    7.3347   -0.2473   -0.3327 C   0  0  0  0  0  0  0  0  0  0  0  0
    7.1541    0.9020   -0.8071 O   0  0  0  0  0  0  0  0  0  0  0  0
  1  2  1  0
  2  3  1  0
  3  4  2  0
  4  5  1  0
  4  6  1  0
  6  7  1  0
  7  8  1  0
  8  9  2  0
  8 10  1  0
 10 11  1  0
 11 12  1  0
 12 13  1  0
 13 14  2  0
 14 15  1  0
 15 16  2  0
 16 17  1  0
 17 18  2  0
 17 19  2  0
 17 20  1  0
 20 21  1  0
 21 22  2  0
 21 23  1  0
 24 23  1  1
 24 25  1  0
 25 26  1  0
 26 27  1  0
 27 28  1  6
 27 29  1  0
 29 30  1  0
 16 31  1  0
 31 32  2  0
  7 33  1  0
 33 34  2  0
 33  3  1  0
 32 13  1  0
 30 24  1  0
M  END
>  <zinc_id>  (58) 
ZINC000100070954

>  <smiles>  (58) 
CCC1=C(C)CN(C(=O)NCCc2ccc(S(=O)(=O)NC(=O)N[C@@H]3CC[C@H](C)CC3)cc2)C1=O

$$$$

     RDKit          3D

 23 24  0  0  0  0  0  0  0  0999 V2000
    1.3146   -1.2936    1.4686 O   0  0  0  0  0  0  0  0  0  0  0  0
    1.0654   -0.2818    0.6530 C   0  0  0  0  0  0  0  0  0  0  0  0
   -0.2991   -0.2688    0.2178 C   0  0  0  0  0  0  0  0  0  0  0  0
   -1.1838   -0.9299    1.1500 C   0  0  0  0  0  0  0  0  0  0  0  0
   -2.5125   -0.8923    1.0484 C   0  0  0  0  0  0  0  0  0  0  0  0
   -3.1506   -0.2078    0.0158 C   0  0  0  0  0  0  0  0  0  0  0  0
   -4.6191   -0.0974   -0.1043 C   0  0  0  0  0  0  0  0  0  0  0  0
   -5.0830    0.2094    1.2120 F   0  0  0  0  0  0  0  0  0  0  0  0
   -4.9410    1.0697   -0.8152 F   0  0  0  0  0  0  0  0  0  0  0  0
   -5.2058   -1.2074   -0.6132 F   0  0  0  0  0  0  0  0  0  0  0  0
   -2.3314    0.4097   -0.8774 C   0  0  0  0  0  0  0  0  0  0  0  0
   -0.9070    0.3802   -0.7659 C   0  0  0  0  0  0  0  0  0  0  0  0
   -0.2643    1.0074   -1.8774 N   0  0  0  0  0  0  0  0  0  0  0  0
   -0.8444    0.8249   -3.0161 O   0  0  0  0  0  0  0  0  0  0  0  0
    0.8442    1.7072   -1.8875 O   0  0  0  0  0  0  0  0  0  0  0  0
    2.2127    0.5799    0.3724 C   0  0  0  0  0  0  0  0  0  0  0  0
    3.0980    0.5241    1.6743 C   0  0  0  0  0  0  0  0  0  0  0  0
    2.4853    0.3540    2.7028 O   0  0  0  0  0  0  0  0  0  0  0  0
    4.5261    0.6775    1.6295 C   0  0  0  0  0  0  0  0  0  0  0  0
    4.9999    1.4815    0.4166 C   0  0  0  0  0  0  0  0  0  0  0  0
    4.4379    0.8942   -0.8258 C   0  0  0  0  0  0  0  0  0  0  0  0
    3.2250    0.0181   -0.5998 C   0  0  0  0  0  0  0  0  0  0  0  0
    3.1331   -0.9942   -1.1788 O   0  0  0  0  0  0  0  0  0  0  0  0
  1  2  2  0
  2  3  1  0
  3  4  2  0
  4  5  1  0
  5  6  2  0
  6  7  1  0
  7  8  1  0
  7  9  1  0
  7 10  1  0
  6 11  1  0
 11 12  2  0
 12 13  1  0
 13 14  2  0
 13 15  1  0
  2 16  1  0
 16 17  1  0
 17 18  2  0
 17 19  1  0
 19 20  1  0
 20 21  1  0
 21 22  1  0
 22 23  2  0
 12  3  1  0
 22 16  1  0
M  CHG  2  13   1  15  -1
M  END
>  <zinc_id>  (59) 
ZINC000100014475

>  <smiles>  (59) 
O=C1CCCC(=O)C1C(=O)c1ccc(C(F)(F)F)cc1[N+](=O)[O-]

$$$$

     RDKit          3D

 24 27  0  0  0  0  0  0  0  0999 V2000
   -5.5477    0.7387    0.6087 C   0  0  0  0  0  0  0  0  0  0  0  0
   -4.6315    0.2329    0.0907 C   0  0  0  0  0  0  0  0  0  0  0  0
   -3.5221   -0.3817   -0.5671 C   0  0  2  0  0  0  0  0  0  0  0  0
   -3.7220   -0.2250   -1.9649 O   0  0  0  0  0  0  0  0  0  0  0  0
   -3.3018   -1.8492   -0.2348 C   0  0  0  0  0  0  0  0  0  0  0  0
   -1.7816   -2.1145   -0.4118 C   0  0  0  0  0  0  0  0  0  0  0  0
   -1.5838   -0.8242   -1.3268 C   0  0  2  0  0  0  0  0  0  0  0  0
    0.0333   -0.5393   -1.3981 C   0  0  2  0  0  0  0  0  0  0  0  0
    0.5764   -2.0108   -1.1149 C   0  0  0  0  0  0  0  0  0  0  0  0
    1.9723   -1.9949   -0.7006 C   0  0  0  0  0  0  0  0  0  0  0  0
    2.6246   -0.7501   -0.4699 C   0  0  0  0  0  0  0  0  0  0  0  0
    3.9184   -0.5881   -0.2926 C   0  0  0  0  0  0  0  0  0  0  0  0
    4.4138    0.7480   -0.0674 C   0  0  0  0  0  0  0  0  0  0  0  0
    5.3982    1.2756   -0.6546 N   0  0  0  0  0  0  0  0  0  0  0  0
    5.8368    2.5517   -0.4099 O   0  0  0  0  0  0  0  0  0  0  0  0
    3.6960    1.5876    0.9649 C   0  0  0  0  0  0  0  0  0  0  0  0
    2.3149    0.9849    1.0960 C   0  0  0  0  0  0  0  0  0  0  0  0
    1.8724    0.6217   -0.4178 C   0  0  2  0  0  0  0  0  0  0  0  0
    0.3743    0.0691    0.0877 C   0  0  1  0  0  0  0  0  0  0  0  0
   -0.2561    1.5160   -0.1758 C   0  0  0  0  0  0  0  0  0  0  0  0
   -1.7073    1.4211   -0.4730 C   0  0  0  0  0  0  0  0  0  0  0  0
   -2.1397    0.1197   -0.1497 C   0  0  1  0  0  0  0  0  0  0  0  0
   -1.9727   -0.4450    1.1899 C   0  0  0  0  0  0  0  0  0  0  0  0
   -2.8654   -0.1444    2.2718 C   0  0  0  0  0  0  0  0  0  0  0  0
  1  2  3  0
  2  3  1  0
  3  4  1  6
  3  5  1  0
  5  6  1  0
  7  6  1  1
  7  8  1  0
  8  9  1  1
  9 10  1  0
 10 11  1  0
 11 12  2  0
 12 13  1  0
 13 14  2  3
 14 15  1  0
 13 16  1  0
 16 17  1  0
 18 17  1  1
 18 19  1  0
 19 20  1  6
 20 21  1  0
 21 22  1  0
 22 23  1  1
 23 24  1  0
 22  3  1  0
 22  7  1  0
 19  8  1  0
 18 11  1  0
M  END
>  <zinc_id>  (60) 
ZINC000256433952

>  <smiles>  (60) 
C#C[C@]1(O)CC[C@@H]2[C@@H]3CCC4=CC(=NO)CC[C@@H]4[C@H]3CC[C@]21CC

$$$$

     RDKit          3D

 20 23  0  0  0  0  0  0  0  0999 V2000
   -2.0077    3.0117   -0.7624 C   0  0  0  0  0  0  0  0  0  0  0  0
   -1.3442    2.2565   -1.5774 N   0  0  0  0  0  0  0  0  0  0  0  0
   -1.9473    0.9685   -1.5461 C   0  0  0  0  0  0  0  0  0  0  0  0
   -0.7092   -0.0093   -1.1745 C   0  0  2  0  0  0  0  0  0  0  0  0
   -1.4686   -0.9588   -0.1972 C   0  0  0  0  0  0  0  0  0  0  0  0
   -2.7725   -1.1194   -0.5587 C   0  0  0  0  0  0  0  0  0  0  0  0
   -3.6336   -1.9516    0.1888 C   0  0  0  0  0  0  0  0  0  0  0  0
   -3.0972   -2.5839    1.2862 C   0  0  0  0  0  0  0  0  0  0  0  0
   -1.7436   -2.3926    1.6284 C   0  0  0  0  0  0  0  0  0  0  0  0
   -0.9360   -1.5888    0.8957 C   0  0  0  0  0  0  0  0  0  0  0  0
    0.3868   -1.5359    1.4128 O   0  0  0  0  0  0  0  0  0  0  0  0
    1.3713   -0.6576    0.8691 C   0  0  0  0  0  0  0  0  0  0  0  0
    2.6669   -1.0949    1.0076 C   0  0  0  0  0  0  0  0  0  0  0  0
    3.7226   -0.3115    0.5071 C   0  0  0  0  0  0  0  0  0  0  0  0
    3.5050    0.8941   -0.1256 C   0  0  0  0  0  0  0  0  0  0  0  0
    4.8278    1.8652   -0.7475 Cl  0  0  0  0  0  0  0  0  0  0  0  0
    2.1892    1.3194   -0.2558 C   0  0  0  0  0  0  0  0  0  0  0  0
    1.2087    0.5498    0.2321 C   0  0  0  0  0  0  0  0  0  0  0  0
   -0.2453    1.1312    0.0567 C   0  0  1  0  0  0  0  0  0  0  0  0
    0.0270    2.2079   -1.1394 C   0  0  0  0  0  0  0  0  0  0  0  0
  1  2  1  0
  2  3  1  0
  4  3  1  6
  4  5  1  0
  5  6  2  0
  6  7  1  0
  7  8  2  0
  8  9  1  0
  9 10  2  0
 10 11  1  0
 11 12  1  0
 12 13  2  0
 13 14  1  0
 14 15  2  0
 15 16  1  0
 15 17  1  0
 17 18  2  0
 18 19  1  0
 19 20  1  6
 20  2  1  0
 19  4  1  0
 10  5  1  0
 18 12  1  0
M  END
>  <zinc_id>  (61) 
ZINC000000002299

>  <smiles>  (61) 
CN1C[C@@H]2c3ccccc3Oc3ccc(Cl)cc3[C@H]2C1

$$$$

     RDKit          2D

 10 11  0  0  0  0  0  0  0  0999 V2000
   -3.6494    1.2396    0.0000 N   0  0  0  0  0  0  0  0  0  0  0  0
   -2.6887    0.0876    0.0000 C   0  0  0  0  0  0  0  0  0  0  0  0
   -2.4327   -1.3904    0.0000 C   0  0  0  0  0  0  0  0  0  0  0  0
   -1.2807   -0.4298    0.0000 C   0  0  0  0  0  0  0  0  0  0  0  0
    0.1973   -0.1738    0.0000 C   0  0  0  0  0  0  0  0  0  0  0  0
    1.1579   -1.3258    0.0000 C   0  0  0  0  0  0  0  0  0  0  0  0
    2.6359   -1.0698    0.0000 C   0  0  0  0  0  0  0  0  0  0  0  0
    3.1533    0.3382    0.0000 C   0  0  0  0  0  0  0  0  0  0  0  0
    2.1926    1.4902    0.0000 C   0  0  0  0  0  0  0  0  0  0  0  0
    0.7146    1.2342    0.0000 C   0  0  0  0  0  0  0  0  0  0  0  0
  2  1  1  6
  2  3  1  0
  3  4  1  0
  4  5  1  6
  5  6  2  0
  6  7  1  0
  7  8  2  0
  8  9  1  0
  9 10  2  0
  4  2  1  0
 10  5  1  0
M  END
>  <zinc_id>  (62) 
ZINC000000896666

>  <smiles>  (62) 
N[C@H]1C[C@H]1c1ccccc1

$$$$

     RDKit          3D

 23 23  0  0  0  0  0  0  0  0999 V2000
    5.7563    0.8050    2.1916 C   0  0  0  0  0  0  0  0  0  0  0  0
    5.6411    0.7145    1.2742 C   0  0  0  0  0  0  0  0  0  0  0  0
    6.7476    0.9911    0.3039 C   0  0  0  0  0  0  0  0  0  0  0  0
    4.3804    0.3297    0.6431 C   0  0  0  0  0  0  0  0  0  0  0  0
    3.3252    0.3415    1.3280 O   0  0  0  0  0  0  0  0  0  0  0  0
    4.3840   -0.0345   -0.6797 O   0  0  0  0  0  0  0  0  0  0  0  0
    3.0721   -0.3941   -1.3830 C   0  0  1  0  0  0  0  0  0  0  0  0
    2.8976   -1.8594   -0.6893 C   0  0  0  0  0  0  0  0  0  0  0  0
    2.0686    0.4269   -0.7663 O   0  0  0  0  0  0  0  0  0  0  0  0
    0.7007    0.1425   -1.1623 C   0  0  0  0  0  0  0  0  0  0  0  0
    0.4631   -0.8127   -1.9520 O   0  0  0  0  0  0  0  0  0  0  0  0
   -0.3538    0.8692   -0.6985 N   0  0  0  0  0  0  0  0  0  0  0  0
   -1.6231    1.1792   -0.5740 C   0  0  0  0  0  0  0  0  0  0  0  0
   -2.6462    0.3516    0.1584 C   0  0  0  0  0  0  0  0  0  0  0  0
   -4.0445    0.8825    0.1313 C   0  0  0  0  0  0  0  0  0  0  0  0
   -4.7114    1.0602   -1.1179 C   0  0  0  0  0  0  0  0  0  0  0  0
   -5.4663    2.0878   -1.3230 O   0  0  0  0  0  0  0  0  0  0  0  0
   -4.5826    0.1558   -2.1656 O   0  0  0  0  0  0  0  0  0  0  0  0
   -2.2747    0.3912    1.6818 C   0  0  0  0  0  0  0  0  0  0  0  0
   -3.5046   -0.1681    2.4142 C   0  0  0  0  0  0  0  0  0  0  0  0
   -3.7865   -1.5780    2.0175 C   0  0  0  0  0  0  0  0  0  0  0  0
   -3.7858   -1.7950    0.5443 C   0  0  0  0  0  0  0  0  0  0  0  0
   -2.6573   -1.1024   -0.1767 C   0  0  0  0  0  0  0  0  0  0  0  0
  1  2  1  0
  2  3  1  0
  2  4  1  0
  4  5  2  0
  4  6  1  0
  6  7  1  0
  7  8  1  1
  7  9  1  0
  9 10  1  0
 10 11  2  0
 10 12  1  0
 12 13  1  0
 13 14  1  0
 14 15  1  0
 15 16  1  0
 16 17  2  0
 16 18  1  0
 14 19  1  0
 19 20  1  0
 20 21  1  0
 21 22  1  0
 22 23  1  0
 23 14  1  0
M  END
>  <zinc_id>  (63) 
ZINC000001554010

>  <smiles>  (63) 
CC(C)C(=O)O[C@@H](C)OC(=O)NCC1(CC(=O)O)CCCCC1

$$$$

     RDKit          3D

 12 12  0  0  0  0  0  0  0  0999 V2000
    0.7714   -2.6487    0.6685 Cl  0  0  0  0  0  0  0  0  0  0  0  0
    0.4314   -0.8503    0.9295 C   0  0  1  0  0  0  0  0  0  0  0  0
    0.8426   -0.3693   -0.5549 C   0  0  2  0  0  0  0  0  0  0  0  0
    2.6857   -0.5740   -0.3365 Cl  0  0  0  0  0  0  0  0  0  0  0  0
    0.7412    1.1161    0.0820 C   0  0  1  0  0  0  0  0  0  0  0  0
    1.5010    1.9869   -1.3645 Cl  0  0  0  0  0  0  0  0  0  0  0  0
   -0.7939    1.5108   -0.2770 C   0  0  1  0  0  0  0  0  0  0  0  0
   -1.0128    0.7971   -1.9983 Cl  0  0  0  0  0  0  0  0  0  0  0  0
   -1.7060    0.5629    0.6759 C   0  0  2  0  0  0  0  0  0  0  0  0
   -0.8684    1.1230    2.2979 Cl  0  0  0  0  0  0  0  0  0  0  0  0
   -1.1828   -0.9697    0.7983 C   0  0  1  0  0  0  0  0  0  0  0  0
   -1.4095   -1.6846   -0.9207 Cl  0  0  0  0  0  0  0  0  0  0  0  0
  2  1  1  6
  2  3  1  0
  3  4  1  1
  3  5  1  0
  5  6  1  6
  5  7  1  0
  7  8  1  6
  7  9  1  0
  9 10  1  1
  9 11  1  0
 11 12  1  6
 11  2  1  0
M  END
>  <zinc_id>  (64) 
ZINC000245204924

>  <smiles>  (64) 
Cl[C@H]1[C@H](Cl)[C@@H](Cl)[C@@H](Cl)[C@H](Cl)[C@H]1Cl

$$$$

     RDKit          3D

 32 32  0  0  0  0  0  0  0  0999 V2000
   -1.5527    5.3565    2.2799 C   0  0  0  0  0  0  0  0  0  0  0  0
   -1.3795    5.4259    1.9422 O   0  0  0  0  0  0  0  0  0  0  0  0
   -1.1927    5.2877    0.5693 C   0  0  0  0  0  0  0  0  0  0  0  0
   -0.9133    3.8807    0.2431 C   0  0  0  0  0  0  0  0  0  0  0  0
   -0.7166    3.5749   -0.9718 O   0  0  0  0  0  0  0  0  0  0  0  0
   -0.8675    2.9046    1.2615 N   0  0  0  0  0  0  0  0  0  0  0  0
   -0.5875    1.5542    0.8489 C   0  0  0  0  0  0  0  0  0  0  0  0
   -1.6700    0.7641    0.5272 C   0  0  0  0  0  0  0  0  0  0  0  0
   -3.6511    1.4078    0.6050 I   0  0  0  0  0  0  0  0  0  0  0  0
   -1.4169   -0.5463    0.1255 C   0  0  0  0  0  0  0  0  0  0  0  0
   -2.5042   -1.4433   -0.2305 C   0  0  0  0  0  0  0  0  0  0  0  0
   -3.6894   -1.0400   -0.1780 O   0  0  0  0  0  0  0  0  0  0  0  0
   -2.1932   -2.7582   -0.6301 N   0  0  0  0  0  0  0  0  0  0  0  0
   -3.3083   -3.6490   -0.9860 C   0  0  0  0  0  0  0  0  0  0  0  0
   -4.1118   -3.6102    0.4990 C   0  0  1  0  0  0  0  0  0  0  0  0
   -5.2184   -4.5546   -0.0091 O   0  0  0  0  0  0  0  0  0  0  0  0
   -3.1957   -4.9040    1.0731 C   0  0  0  0  0  0  0  0  0  0  0  0
   -4.1077   -5.4506    1.9957 O   0  0  0  0  0  0  0  0  0  0  0  0
   -0.1090   -0.9767    0.0724 C   0  0  0  0  0  0  0  0  0  0  0  0
    0.3620   -2.9584   -0.5292 I   0  0  0  0  0  0  0  0  0  0  0  0
    0.9639   -0.1713    0.3984 C   0  0  0  0  0  0  0  0  0  0  0  0
    2.3191   -0.6492    0.3332 C   0  0  0  0  0  0  0  0  0  0  0  0
    2.8377   -1.1834    1.3336 O   0  0  0  0  0  0  0  0  0  0  0  0
    3.1180   -0.5361   -0.8570 N   0  0  0  0  0  0  0  0  0  0  0  0
    2.5075    0.0911   -2.0290 C   0  0  0  0  0  0  0  0  0  0  0  0
    4.4429   -1.0650   -0.8936 C   0  0  0  0  0  0  0  0  0  0  0  0
    5.4754    0.0935   -0.3185 C   0  0  1  0  0  0  0  0  0  0  0  0
    6.6877   -0.9073   -0.4813 O   0  0  0  0  0  0  0  0  0  0  0  0
    5.8110    0.7367   -1.8118 C   0  0  0  0  0  0  0  0  0  0  0  0
    4.9032    1.7808   -1.9054 O   0  0  0  0  0  0  0  0  0  0  0  0
    0.6990    1.1203    0.7933 C   0  0  0  0  0  0  0  0  0  0  0  0
    2.2581    2.4250    1.3097 I   0  0  0  0  0  0  0  0  0  0  0  0
  1  2  1  0
  2  3  1  0
  3  4  1  0
  4  5  2  0
  4  6  1  0
  6  7  1  0
  7  8  2  0
  8  9  1  0
  8 10  1  0
 10 11  1  0
 11 12  2  0
 11 13  1  0
 13 14  1  0
 14 15  1  0
 15 16  1  6
 15 17  1  0
 17 18  1  0
 10 19  2  0
 19 20  1  0
 19 21  1  0
 21 22  1  0
 22 23  2  0
 22 24  1  0
 24 25  1  0
 24 26  1  0
 26 27  1  0
 27 28  1  6
 27 29  1  0
 29 30  1  0
 21 31  2  0
 31 32  1  0
 31  7  1  0
M  END
>  <zinc_id>  (65) 
ZINC000003830960

>  <smiles>  (65) 
COCC(=O)Nc1c(I)c(C(=O)NC[C@@H](O)CO)c(I)c(C(=O)N(C)C[C@@H](O)CO)c1I

$$$$

     RDKit          3D

 32 36  0  0  0  0  0  0  0  0999 V2000
    6.4898    1.3109    0.9168 C   0  0  0  0  0  0  0  0  0  0  0  0
    6.1116    0.0660    0.1931 C   0  0  0  0  0  0  0  0  0  0  0  0
    7.0249   -0.7456   -0.1064 O   0  0  0  0  0  0  0  0  0  0  0  0
    4.8304   -0.2435   -0.1632 O   0  0  0  0  0  0  0  0  0  0  0  0
    4.4042   -1.3687   -0.8298 C   0  0  0  0  0  0  0  0  0  0  0  0
    2.9627   -1.4975   -1.1130 C   0  0  0  0  0  0  0  0  0  0  0  0
    2.7123   -2.5542   -1.7146 O   0  0  0  0  0  0  0  0  0  0  0  0
    1.9151   -0.5015   -0.7369 C   0  0  1  0  0  0  0  0  0  0  0  0
    2.5641    0.5806   -0.1211 N   0  0  0  0  0  0  0  0  0  0  0  0
    2.2772    1.6758   -0.6375 C   0  0  0  0  0  0  0  0  0  0  0  0
    2.8249    3.0027   -0.1798 C   0  0  0  0  0  0  0  0  0  0  0  0
    1.3940    1.5527   -1.6892 O   0  0  0  0  0  0  0  0  0  0  0  0
    1.6625    0.1206   -2.2130 C   0  0  2  0  0  0  0  0  0  0  0  0
    0.1031   -0.3327   -2.3864 C   0  0  0  0  0  0  0  0  0  0  0  0
   -0.2758    0.1584   -0.9184 C   0  0  1  0  0  0  0  0  0  0  0  0
   -1.6295   -0.7835   -0.6226 C   0  0  2  0  0  0  0  0  0  0  0  0
   -2.5182   -0.1634   -1.7908 C   0  0  0  0  0  0  0  0  0  0  0  0
   -3.8726   -0.7363   -1.3144 C   0  0  0  0  0  0  0  0  0  0  0  0
   -4.1462    0.0099   -0.0589 C   0  0  0  0  0  0  0  0  0  0  0  0
   -5.1453    0.8413   -0.1177 C   0  0  0  0  0  0  0  0  0  0  0  0
   -5.4742    1.6176    1.0885 C   0  0  0  0  0  0  0  0  0  0  0  0
   -6.4354    2.4129    1.0226 O   0  0  0  0  0  0  0  0  0  0  0  0
   -4.6424    1.3708    2.2212 C   0  0  0  0  0  0  0  0  0  0  0  0
   -3.6557    0.5275    2.2268 C   0  0  0  0  0  0  0  0  0  0  0  0
   -3.2704   -0.2656    1.1066 C   0  0  1  0  0  0  0  0  0  0  0  0
   -3.2139   -1.7061    1.1863 C   0  0  0  0  0  0  0  0  0  0  0  0
   -1.9600    0.4237    0.4769 C   0  0  1  0  0  0  0  0  0  0  0  0
   -0.7356    0.1801    1.5903 C   0  0  1  0  0  0  0  0  0  0  0  0
   -1.4213   -0.6406    2.6334 O   0  0  0  0  0  0  0  0  0  0  0  0
    0.1166   -1.0619    1.0189 C   0  0  0  0  0  0  0  0  0  0  0  0
    0.6675   -0.9693   -0.2642 C   0  0  2  0  0  0  0  0  0  0  0  0
    0.3357   -2.2810   -0.9753 C   0  0  0  0  0  0  0  0  0  0  0  0
  1  2  1  0
  2  3  2  0
  2  4  1  0
  4  5  1  0
  5  6  1  0
  6  7  2  0
  8  6  1  6
  8  9  1  0
  9 10  2  0
 10 11  1  0
 10 12  1  0
 12 13  1  0
 13 14  1  1
 15 14  1  6
 15 16  1  0
 16 17  1  6
 17 18  1  0
 18 19  1  0
 19 20  2  0
 20 21  1  0
 21 22  2  0
 21 23  1  0
 23 24  2  0
 24 25  1  0
 25 26  1  1
 25 27  1  0
 27 28  1  1
 28 29  1  1
 28 30  1  0
 30 31  1  0
 31 32  1  6
 13  8  1  0
 31 15  1  0
 31  8  1  0
 27 16  1  0
 25 19  1  0
M  END
>  <zinc_id>  (66) 
ZINC000004212809

>  <smiles>  (66) 
CC(=O)OCC(=O)[C@@]12N=C(C)O[C@@H]1C[C@H]1[C@@H]3CCC4=CC(=O)C=C[C@]4(C)[C@H]3[C@@H](O)C[C@@]12C

$$$$

     RDKit          3D

  5  4  0  0  0  0  0  0  0  0999 V2000
   -1.7944   -0.5986   -0.1857 C   0  0  0  0  0  0  0  0  0  0  0  0
   -0.4561    0.0489   -0.1033 C   0  0  0  0  0  0  0  0  0  0  0  0
   -0.3529    1.2526   -0.4190 O   0  0  0  0  0  0  0  0  0  0  0  0
    0.7070   -0.6743    0.3272 N   0  0  0  0  0  0  0  0  0  0  0  0
    1.8964   -0.0286    0.3808 O   0  0  0  0  0  0  0  0  0  0  0  0
  1  2  1  0
  2  3  2  0
  2  4  1  0
  4  5  1  0
M  END
>  <zinc_id>  (67) 
ZINC000004658603

>  <smiles>  (67) 
CC(=O)NO

$$$$

     RDKit          3D

 53 58  0  0  0  0  0  0  0  0999 V2000
   -5.4632   -3.3392    1.0135 C   0  0  0  0  0  0  0  0  0  0  0  0
   -5.3210   -2.1301    1.9025 C   0  0  0  0  0  0  0  0  0  0  0  0
   -4.9352   -2.5084    3.3123 C   0  0  0  0  0  0  0  0  0  0  0  0
   -6.5525   -1.3174    1.8998 C   0  0  0  0  0  0  0  0  0  0  0  0
   -6.1878   -0.1049    1.3861 C   0  0  0  0  0  0  0  0  0  0  0  0
   -7.1802    0.8677    1.2724 C   0  0  0  0  0  0  0  0  0  0  0  0
   -8.4724    0.6014    1.6667 C   0  0  0  0  0  0  0  0  0  0  0  0
   -8.8230   -0.6240    2.1815 C   0  0  0  0  0  0  0  0  0  0  0  0
  -10.1366   -0.8958    2.5824 C   0  0  0  0  0  0  0  0  0  0  0  0
  -10.4767   -2.1264    3.0962 C   0  0  0  0  0  0  0  0  0  0  0  0
   -9.5135   -3.1035    3.2182 C   0  0  0  0  0  0  0  0  0  0  0  0
   -8.2054   -2.8180    2.8140 C   0  0  0  0  0  0  0  0  0  0  0  0
   -7.8595   -1.5935    2.3009 C   0  0  0  0  0  0  0  0  0  0  0  0
   -4.7978   -0.0577    1.0474 N   0  0  0  0  0  0  0  0  0  0  0  0
   -4.1489    1.1385    0.4727 C   0  0  0  0  0  0  0  0  0  0  0  0
   -4.8349    1.4433   -0.8593 C   0  0  0  0  0  0  0  0  0  0  0  0
   -4.2206    2.6631   -1.5049 C   0  0  0  0  0  0  0  0  0  0  0  0
   -4.8694    2.9882   -2.8231 C   0  0  0  0  0  0  0  0  0  0  0  0
   -6.5909    3.3167   -2.6900 S   0  0  0  0  0  0  0  0  0  0  0  0
   -7.2924    2.0723   -2.1620 O   0  0  0  0  0  0  0  0  0  0  0  0
   -6.9179    4.4313   -1.7589 O   0  0  0  0  0  0  0  0  0  0  0  0
   -7.1992    3.6701   -4.2334 O   0  0  0  0  0  0  0  0  0  0  0  0
   -4.2826   -1.1926    1.3299 C   0  0  0  0  0  0  0  0  0  0  0  0
   -2.9326   -1.6287    1.1696 C   0  0  0  0  0  0  0  0  0  0  0  0
   -1.8403   -1.2798    0.7892 C   0  0  0  0  0  0  0  0  0  0  0  0
   -1.2374   -0.1235    0.2345 C   0  0  0  0  0  0  0  0  0  0  0  0
    0.0697   -0.1663   -0.0557 C   0  0  0  0  0  0  0  0  0  0  0  0
    0.7958   -1.3979    0.2160 C   0  0  0  0  0  0  0  0  0  0  0  0
    2.0779   -1.4473   -0.0669 C   0  0  0  0  0  0  0  0  0  0  0  0
    2.8026   -0.3189   -0.6421 C   0  0  0  0  0  0  0  0  0  0  0  0
    4.1090   -0.4122   -0.9137 C   0  0  0  0  0  0  0  0  0  0  0  0
    4.9722    0.5955   -1.4784 N   0  0  0  0  0  0  0  0  0  0  0  0
    4.4612    1.8998   -1.8428 C   0  0  0  0  0  0  0  0  0  0  0  0
    4.0265    2.6809   -0.6621 C   0  0  0  0  0  0  0  0  0  0  0  0
    5.1264    2.9623    0.3038 C   0  0  0  0  0  0  0  0  0  0  0  0
    6.2146    3.7911   -0.3410 C   0  0  0  0  0  0  0  0  0  0  0  0
    7.5333    4.1433    0.7770 S   0  0  0  0  0  0  0  0  0  0  0  0
    8.1665    2.8801    1.2875 O   0  0  0  0  0  0  0  0  0  0  0  0
    8.5845    4.9274    0.0642 O   0  0  0  0  0  0  0  0  0  0  0  0
    6.9842    5.0005    2.1160 O   0  0  0  0  0  0  0  0  0  0  0  0
    6.2616    0.0218   -1.5814 C   0  0  0  0  0  0  0  0  0  0  0  0
    7.4196    0.6076   -2.0770 C   0  0  0  0  0  0  0  0  0  0  0  0
    8.5849   -0.1198   -2.1050 C   0  0  0  0  0  0  0  0  0  0  0  0
    8.6078   -1.4038   -1.6518 C   0  0  0  0  0  0  0  0  0  0  0  0
    9.7563   -2.1412   -1.6724 C   0  0  0  0  0  0  0  0  0  0  0  0
    9.7684   -3.4513   -1.2075 C   0  0  0  0  0  0  0  0  0  0  0  0
    8.6219   -4.0123   -0.7237 C   0  0  0  0  0  0  0  0  0  0  0  0
    7.4448   -3.2791   -0.6946 C   0  0  0  0  0  0  0  0  0  0  0  0
    7.4531   -1.9713   -1.1638 C   0  0  0  0  0  0  0  0  0  0  0  0
    6.2598   -1.2779   -1.1166 C   0  0  0  0  0  0  0  0  0  0  0  0
    4.8957   -1.6156   -0.6616 C   0  0  0  0  0  0  0  0  0  0  0  0
    4.8649   -2.0396    0.7915 C   0  0  0  0  0  0  0  0  0  0  0  0
    4.4286   -2.8050   -1.4840 C   0  0  0  0  0  0  0  0  0  0  0  0
  1  2  1  0
  2  3  1  0
  2  4  1  0
  4  5  2  0
  5  6  1  0
  6  7  2  0
  7  8  1  0
  8  9  2  0
  9 10  1  0
 10 11  2  0
 11 12  1  0
 12 13  2  0
  5 14  1  0
 14 15  1  0
 15 16  1  0
 16 17  1  0
 17 18  1  0
 18 19  1  0
 19 20  2  0
 19 21  2  0
 19 22  1  0
 14 23  2  0
 23 24  1  0
 24 25  2  0
 25 26  1  0
 26 27  2  0
 27 28  1  0
 28 29  2  0
 29 30  1  0
 30 31  2  0
 31 32  1  0
 32 33  1  0
 33 34  1  0
 34 35  1  0
 35 36  1  0
 36 37  1  0
 37 38  2  0
 37 39  2  0
 37 40  1  0
 32 41  1  0
 41 42  2  0
 42 43  1  0
 43 44  2  0
 44 45  1  0
 45 46  2  0
 46 47  1  0
 47 48  2  0
 48 49  1  0
 49 50  2  0
 50 51  1  0
 51 52  1  0
 51 53  1  0
 23  2  1  0
 51 31  1  0
 13  4  1  0
 50 41  1  0
 13  8  1  0
 49 44  1  0
M  CHG  1  14   1
M  END
>  <zinc_id>  (68) 
ZINC000008101127

>  <smiles>  (68) 
CC1(C)C(C=C/C=C\C=C/C=C2/N(CCCCS(=O)(=O)O)c3ccc4ccccc4c3C2(C)C)=[N+](CCCCS(=O)(=O)O)c2ccc3ccccc3c21

$$$$

     RDKit          3D

 26 27  0  0  0  0  0  0  0  0999 V2000
    6.6752   -1.1775   -3.1586 C   0  0  0  0  0  0  0  0  0  0  0  0
    6.4099   -0.5272   -2.4403 C   0  0  0  0  0  0  0  0  0  0  0  0
    6.0743    0.3029   -1.5195 C   0  0  0  0  0  0  0  0  0  0  0  0
    5.6643    1.2518   -0.4347 C   0  0  0  0  0  0  0  0  0  0  0  0
    4.5819    0.4888    0.4604 C   0  0  2  0  0  0  0  0  0  0  0  0
    5.5191   -0.7424    0.8985 C   0  0  0  0  0  0  0  0  0  0  0  0
    3.8650   -0.3668   -0.8131 C   0  0  2  0  0  0  0  0  0  0  0  0
    3.4656    0.9040   -1.5402 O   0  0  0  0  0  0  0  0  0  0  0  0
    2.5037   -0.6161   -0.0180 C   0  0  0  0  0  0  0  0  0  0  0  0
    1.9295    0.3549    0.6242 C   0  0  0  0  0  0  0  0  0  0  0  0
    0.5867    0.0305    1.3850 C   0  0  1  0  0  0  0  0  0  0  0  0
    0.7692    1.2892    2.4818 C   0  0  2  0  0  0  0  0  0  0  0  0
    1.2272    0.3523    3.5968 O   0  0  0  0  0  0  0  0  0  0  0  0
   -0.7771    1.1887    2.9226 C   0  0  0  0  0  0  0  0  0  0  0  0
   -1.5635    1.0965    1.5431 C   0  0  2  0  0  0  0  0  0  0  0  0
   -1.6296   -0.5245    1.5261 C   0  0  0  0  0  0  0  0  0  0  0  0
   -1.9779   -0.5271    0.0928 C   0  0  0  0  0  0  0  0  0  0  0  0
   -3.0911   -0.9945   -0.4018 C   0  0  0  0  0  0  0  0  0  0  0  0
   -4.1947   -1.5990    0.3677 C   0  0  0  0  0  0  0  0  0  0  0  0
   -5.5069   -0.8987    0.2412 C   0  0  0  0  0  0  0  0  0  0  0  0
   -6.0533   -0.8195   -1.1512 C   0  0  0  0  0  0  0  0  0  0  0  0
   -7.3457   -0.0950   -1.0868 C   0  0  0  0  0  0  0  0  0  0  0  0
   -7.4134    1.1621   -1.0026 O   0  0  0  0  0  0  0  0  0  0  0  0
   -8.5921   -0.7625   -1.1147 O   0  0  0  0  0  0  0  0  0  0  0  0
   -0.8538    0.0759   -0.5537 C   0  0  0  0  0  0  0  0  0  0  0  0
   -0.2724    1.1533    0.4962 C   0  0  2  0  0  0  0  0  0  0  0  0
  1  2  1  0
  2  3  3  0
  3  4  1  0
  4  5  1  0
  5  6  1  1
  5  7  1  0
  7  8  1  6
  7  9  1  0
  9 10  2  0
 11 10  1  6
 11 12  1  0
 12 13  1  1
 12 14  1  0
 15 14  1  1
 15 16  1  0
 16 17  1  0
 17 18  2  0
 18 19  1  0
 19 20  1  0
 20 21  1  0
 21 22  1  0
 22 23  2  0
 22 24  1  0
 17 25  1  0
 26 25  1  6
 26 11  1  0
 26 15  1  0
M  END
>  <zinc_id>  (69) 
ZINC000013587680

>  <smiles>  (69) 
CC#CC[C@H](C)[C@H](O)/C=C/[C@@H]1[C@H]2C/C(=C/CCCC(=O)O)C[C@H]2C[C@H]1O

$$$$

     RDKit          3D

 51 53  0  0  0  0  0  0  0  0999 V2000
   -6.4913    1.9840   -1.9942 O   0  0  0  0  0  0  0  0  0  0  0  0
   -6.4416    2.6069   -0.9213 C   0  0  0  0  0  0  0  0  0  0  0  0
   -5.8112    3.8837   -0.9114 O   0  0  0  0  0  0  0  0  0  0  0  0
   -6.9648    2.1644    0.3561 C   0  0  0  0  0  0  0  0  0  0  0  0
   -7.3523    0.8145    0.5319 N   0  0  0  0  0  0  0  0  0  0  0  0
   -6.3104   -0.1452    0.6153 C   0  0  0  0  0  0  0  0  0  0  0  0
   -5.5063   -0.3999   -0.5615 C   0  0  0  0  0  0  0  0  0  0  0  0
   -4.4631   -1.3075   -0.6183 N   0  0  0  0  0  0  0  0  0  0  0  0
   -4.7621   -2.6586   -0.5528 C   0  0  0  0  0  0  0  0  0  0  0  0
   -5.2085   -3.2746    0.6819 C   0  0  0  0  0  0  0  0  0  0  0  0
   -5.3019   -2.7481    1.8009 O   0  0  0  0  0  0  0  0  0  0  0  0
   -5.5821   -4.6363    0.6217 O   0  0  0  0  0  0  0  0  0  0  0  0
   -3.3323   -0.8785   -1.4041 C   0  0  0  0  0  0  0  0  0  0  0  0
   -2.6288    0.2834   -0.5209 C   0  0  2  0  0  0  0  0  0  0  0  0
   -1.4532    0.5667   -1.6509 C   0  0  0  0  0  0  0  0  0  0  0  0
   -0.4487    1.0186   -0.8443 O   0  0  0  0  0  0  0  0  0  0  0  0
    0.9907    1.4465   -1.5294 P   0  0  2  0  0  0  0  0  0  0  0  0
    0.7516    2.6992   -2.3636 O   0  0  0  0  0  0  0  0  0  0  0  0
    1.6803    0.2973   -2.5285 O   0  0  0  0  0  0  0  0  0  0  0  0
    2.1428    1.9012   -0.3475 O   0  0  0  0  0  0  0  0  0  0  0  0
    3.0073    0.8536   -0.0392 C   0  0  0  0  0  0  0  0  0  0  0  0
    3.9318    1.3542    1.0550 C   0  0  0  0  0  0  0  0  0  0  0  0
    5.0479    0.3720    1.3236 C   0  0  0  0  0  0  0  0  0  0  0  0
    5.8847    0.2152    0.0616 C   0  0  0  0  0  0  0  0  0  0  0  0
    6.4714    1.4770   -0.3689 C   0  0  0  0  0  0  0  0  0  0  0  0
    7.5293    1.5044   -1.2257 C   0  0  0  0  0  0  0  0  0  0  0  0
    8.1769    2.5969   -1.7275 C   0  0  0  0  0  0  0  0  0  0  0  0
    7.7003    3.8345   -1.3158 C   0  0  0  0  0  0  0  0  0  0  0  0
    6.6356    3.8485   -0.4560 C   0  0  0  0  0  0  0  0  0  0  0  0
    5.9985    2.7333    0.0390 C   0  0  0  0  0  0  0  0  0  0  0  0
    6.9412   -0.7979    0.3029 C   0  0  0  0  0  0  0  0  0  0  0  0
    7.1729   -1.4331    1.4941 C   0  0  0  0  0  0  0  0  0  0  0  0
    8.1977   -2.3827    1.6024 C   0  0  0  0  0  0  0  0  0  0  0  0
    8.9608   -2.6623    0.5114 C   0  0  0  0  0  0  0  0  0  0  0  0
    8.7687   -2.0636   -0.6795 C   0  0  0  0  0  0  0  0  0  0  0  0
    7.7549   -1.1282   -0.7817 C   0  0  0  0  0  0  0  0  0  0  0  0
    4.9592   -0.3423   -0.9935 C   0  0  0  0  0  0  0  0  0  0  0  0
    3.8844    0.6813   -1.2702 C   0  0  0  0  0  0  0  0  0  0  0  0
   -1.7113   -0.7924    0.2282 N   0  0  0  0  0  0  0  0  0  0  0  0
   -0.9672   -1.4559   -0.6477 C   0  0  0  0  0  0  0  0  0  0  0  0
   -0.0414   -2.4370   -0.6575 C   0  0  0  0  0  0  0  0  0  0  0  0
    0.2854   -2.9877    0.4326 O   0  0  0  0  0  0  0  0  0  0  0  0
    0.6091   -2.9120   -1.7973 O   0  0  0  0  0  0  0  0  0  0  0  0
   -1.0825   -0.1690    1.3296 C   0  0  0  0  0  0  0  0  0  0  0  0
   -1.8950    0.1968    2.4375 C   0  0  0  0  0  0  0  0  0  0  0  0
   -1.4576    0.8005    3.4710 O   0  0  0  0  0  0  0  0  0  0  0  0
   -3.2436   -0.0897    2.4521 O   0  0  0  0  0  0  0  0  0  0  0  0
   -8.2857    0.7270    1.6572 C   0  0  0  0  0  0  0  0  0  0  0  0
   -8.7912   -0.6298    1.8802 C   0  0  0  0  0  0  0  0  0  0  0  0
   -9.5397   -0.8841    2.8185 O   0  0  0  0  0  0  0  0  0  0  0  0
   -8.4093   -1.6450    1.0046 O   0  0  0  0  0  0  0  0  0  0  0  0
  1  2  2  0
  2  3  1  0
  2  4  1  0
  4  5  1  0
  5  6  1  0
  6  7  1  0
  7  8  1  0
  8  9  1  0
  9 10  1  0
 10 11  2  0
 10 12  1  0
  8 13  1  0
 14 13  1  6
 14 15  1  0
 15 16  1  0
 16 17  1  0
 17 18  2  0
 17 19  1  6
 17 20  1  0
 20 21  1  0
 21 22  1  0
 22 23  1  0
 23 24  1  0
 24 25  1  0
 25 26  2  0
 26 27  1  0
 27 28  2  0
 28 29  1  0
 29 30  2  0
 24 31  1  0
 31 32  2  0
 32 33  1  0
 33 34  2  0
 34 35  1  0
 35 36  2  0
 24 37  1  0
 37 38  1  0
 14 39  1  0
 39 40  1  0
 40 41  1  0
 41 42  2  0
 41 43  1  0
 39 44  1  0
 44 45  1  0
 45 46  2  0
 45 47  1  0
  5 48  1  0
 48 49  1  0
 49 50  2  0
 49 51  1  0
 38 21  1  0
 30 25  1  0
 36 31  1  0
M  END
>  <zinc_id>  (70) 
ZINC000028108825

>  <smiles>  (70) 
O=C(O)CN(CCN(CC(=O)O)C[C@H](CO[P@](=O)(O)OC1CCC(c2ccccc2)(c2ccccc2)CC1)N(CC(=O)O)CC(=O)O)CC(=O)O

$$$$

     RDKit          2D

 36 40  0  0  0  0  0  0  0  0999 V2000
   -4.0552    4.4944    0.0000 C   0  0  0  0  0  0  0  0  0  0  0  0
   -3.1161    3.3248    0.0000 C   0  0  0  0  0  0  0  0  0  0  0  0
   -3.6595    1.9267    0.0000 C   0  0  0  0  0  0  0  0  0  0  0  0
   -4.8693    2.8134    0.0000 C   0  0  0  0  0  0  0  0  0  0  0  0
   -2.1684    1.7637    0.0000 C   0  0  0  0  0  0  0  0  0  0  0  0
   -1.2292    0.5940    0.0000 C   0  0  0  0  0  0  0  0  0  0  0  0
    0.2108    1.0141    0.0000 O   0  0  0  0  0  0  0  0  0  0  0  0
    1.2945   -0.0230    0.0000 C   0  0  0  0  0  0  0  0  0  0  0  0
    0.9383   -1.4801    0.0000 O   0  0  0  0  0  0  0  0  0  0  0  0
    2.7345    0.3971    0.0000 C   0  0  0  0  0  0  0  0  0  0  0  0
    3.8183   -0.6400    0.0000 S   0  0  0  0  0  0  0  0  0  0  0  0
    5.2583   -0.2199    0.0000 C   0  0  0  0  0  0  0  0  0  0  0  0
    6.3420   -1.2570    0.0000 C   0  0  0  0  0  0  0  0  0  0  0  0
    7.7820   -0.8369    0.0000 C   0  0  0  0  0  0  0  0  0  0  0  0
    9.0217    0.0075    0.0000 C   0  0  0  0  0  0  0  0  0  0  0  0
    8.6017    1.4475    0.0000 C   0  0  0  0  0  0  0  0  0  0  0  0
    7.1024    1.4930    0.0000 C   0  0  0  0  0  0  0  0  0  0  0  0
    5.6145    1.2372    0.0000 C   0  0  0  0  0  0  0  0  0  0  0  0
    6.5958    0.0812    0.0000 N   0  0  0  0  0  0  0  0  0  0  0  0
    5.7992    0.0497    0.0000 C   0  0  0  0  0  0  0  0  0  0  0  0
   -1.3922   -0.8971    0.0000 C   0  0  0  0  0  0  0  0  0  0  0  0
   -0.0770   -1.6183    0.0000 C   0  0  0  0  0  0  0  0  0  0  0  0
   -2.5618   -1.8362    0.0000 C   0  0  0  0  0  0  0  0  0  0  0  0
   -2.2561   -3.3047    0.0000 C   0  0  0  0  0  0  0  0  0  0  0  0
   -0.8883   -3.9205    0.0000 O   0  0  0  0  0  0  0  0  0  0  0  0
   -3.5582   -4.0493    0.0000 C   0  0  0  0  0  0  0  0  0  0  0  0
   -4.6688   -3.0410    0.0000 C   0  0  0  0  0  0  0  0  0  0  0  0
   -4.0530   -1.6732    0.0000 C   0  0  0  0  0  0  0  0  0  0  0  0
   -4.3064   -0.1846    0.0000 C   0  0  0  0  0  0  0  0  0  0  0  0
   -3.2693    0.8991    0.0000 C   0  0  0  0  0  0  0  0  0  0  0  0
   -1.8123    0.5429    0.0000 C   0  0  0  0  0  0  0  0  0  0  0  0
   -0.7752    1.6267    0.0000 C   0  0  0  0  0  0  0  0  0  0  0  0
   -4.9921   -0.5036    0.0000 C   0  0  0  0  0  0  0  0  0  0  0  0
   -6.4321   -0.9236    0.0000 C   0  0  0  0  0  0  0  0  0  0  0  0
   -4.8291    0.9875    0.0000 C   0  0  0  0  0  0  0  0  0  0  0  0
   -6.1443    1.7087    0.0000 O   0  0  0  0  0  0  0  0  0  0  0  0
  1  2  2  0
  2  3  1  0
  3  4  1  1
  3  5  1  0
  5  6  1  0
  6  7  1  1
  7  8  1  0
  8  9  2  0
  8 10  1  0
 10 11  1  0
 12 11  1  1
 12 13  1  0
 14 13  1  6
 14 15  1  0
 15 16  1  0
 17 16  1  6
 17 18  1  0
 17 19  1  0
 19 20  1  0
  6 21  1  0
 21 22  1  6
 21 23  1  0
 23 24  1  6
 24 25  2  0
 24 26  1  0
 26 27  1  0
 28 27  1  6
 28 29  1  0
 29 30  1  0
 30 31  1  0
 31 32  1  1
 28 33  1  0
 33 34  1  1
 33 35  1  0
 35 36  1  6
 35  3  1  0
 18 12  1  0
 31 21  1  0
 19 14  1  0
 28 23  1  0
M  END
>  <zinc_id>  (71) 
ZINC000100013500

>  <smiles>  (71) 
C=C[C@]1(C)C[C@@H](OC(=O)CS[C@H]2C[C@@H]3CC[C@H](C2)N3C)[C@]2(C)[C@H](C)CC[C@]3(CCC(=O)[C@H]32)[C@@H](C)[C@@H]1O

$$$$

     RDKit          3D

 40 43  0  0  0  0  0  0  0  0999 V2000
   -4.5628   -1.7453   -0.1545 C   0  0  0  0  0  0  0  0  0  0  0  0
   -4.6705   -2.6787    0.9158 C   0  0  0  0  0  0  0  0  0  0  0  0
   -5.9234   -3.1142    1.3120 C   0  0  0  0  0  0  0  0  0  0  0  0
   -7.0913   -2.6510    0.6708 O   0  0  0  0  0  0  0  0  0  0  0  0
   -6.0219   -4.0131    2.3499 C   0  0  0  0  0  0  0  0  0  0  0  0
   -4.8634   -4.4575    2.9682 C   0  0  0  0  0  0  0  0  0  0  0  0
   -3.6305   -3.9993    2.5426 C   0  0  0  0  0  0  0  0  0  0  0  0
   -3.4943   -3.0946    1.5024 C   0  0  0  0  0  0  0  0  0  0  0  0
   -2.1761   -2.6291    1.0675 C   0  0  0  0  0  0  0  0  0  0  0  0
   -1.1729   -3.0396    1.6853 O   0  0  0  0  0  0  0  0  0  0  0  0
   -1.8891   -1.7609    0.0209 N   0  0  0  0  0  0  0  0  0  0  0  0
   -0.4199   -1.3938   -0.2875 C   0  0  1  0  0  0  0  0  0  0  0  0
   -0.7961   -0.7301   -1.6408 C   0  0  0  0  0  0  0  0  0  0  0  0
   -1.7263    0.3838   -2.1627 S   0  0  0  0  0  0  0  0  0  0  0  0
   -2.2414    1.9835   -2.2669 C   0  0  0  0  0  0  0  0  0  0  0  0
   -1.7264    2.9359   -3.1155 C   0  0  0  0  0  0  0  0  0  0  0  0
   -2.1797    4.2090   -3.1895 C   0  0  0  0  0  0  0  0  0  0  0  0
   -3.2165    4.6085   -2.3829 C   0  0  0  0  0  0  0  0  0  0  0  0
   -3.7718    3.7037   -1.5167 C   0  0  0  0  0  0  0  0  0  0  0  0
   -3.2735    2.4372   -1.4862 C   0  0  0  0  0  0  0  0  0  0  0  0
   -0.1401   -0.2472    0.8169 C   0  0  2  0  0  0  0  0  0  0  0  0
   -0.9330    0.8589    0.4538 O   0  0  0  0  0  0  0  0  0  0  0  0
    1.3324    0.0164    0.6667 C   0  0  0  0  0  0  0  0  0  0  0  0
    1.9847    0.3118   -0.4074 N   0  0  0  0  0  0  0  0  0  0  0  0
    1.7040    1.6664   -0.9049 C   0  0  0  0  0  0  0  0  0  0  0  0
    2.8140    1.9537   -2.0139 C   0  0  1  0  0  0  0  0  0  0  0  0
    2.0670    3.2821   -2.5281 C   0  0  0  0  0  0  0  0  0  0  0  0
    3.0939    4.2880   -2.9117 C   0  0  0  0  0  0  0  0  0  0  0  0
    3.5796    4.9042   -1.6196 C   0  0  0  0  0  0  0  0  0  0  0  0
    3.2443    3.9474   -0.4814 C   0  0  0  0  0  0  0  0  0  0  0  0
    3.9746    2.6221   -1.0008 C   0  0  1  0  0  0  0  0  0  0  0  0
    3.7319    1.7501    0.3330 C   0  0  0  0  0  0  0  0  0  0  0  0
    3.4949    0.3152   -0.4260 C   0  0  1  0  0  0  0  0  0  0  0  0
    3.9328   -0.6870    0.6617 C   0  0  0  0  0  0  0  0  0  0  0  0
    3.0732   -1.5191    0.9710 O   0  0  0  0  0  0  0  0  0  0  0  0
    5.1432   -0.7353    1.2936 N   0  0  0  0  0  0  0  0  0  0  0  0
    5.5715   -1.6646    2.3156 C   0  0  0  0  0  0  0  0  0  0  0  0
    5.5264   -3.0588    1.7108 C   0  0  0  0  0  0  0  0  0  0  0  0
    4.6569   -1.6134    3.5231 C   0  0  0  0  0  0  0  0  0  0  0  0
    6.9955   -1.3453    2.7154 C   0  0  0  0  0  0  0  0  0  0  0  0
  1  2  1  0
  2  3  2  0
  3  4  1  0
  3  5  1  0
  5  6  2  0
  6  7  1  0
  7  8  2  0
  8  9  1  0
  9 10  2  0
  9 11  1  0
 11 12  1  0
 12 13  1  6
 13 14  1  0
 14 15  1  0
 15 16  2  0
 16 17  1  0
 17 18  2  0
 18 19  1  0
 19 20  2  0
 12 21  1  0
 21 22  1  6
 21 23  1  0
 23 24  1  0
 24 25  1  0
 26 25  1  1
 26 27  1  0
 27 28  1  0
 28 29  1  0
 29 30  1  0
 31 30  1  1
 31 32  1  0
 32 33  1  0
 33 34  1  1
 34 35  2  0
 34 36  1  0
 36 37  1  0
 37 38  1  0
 37 39  1  0
 37 40  1  0
  8  2  1  0
 20 15  1  0
 33 24  1  0
 31 26  1  0
M  END
>  <zinc_id>  (72) 
ZINC000003833846

>  <smiles>  (72) 
Cc1c(O)cccc1C(=O)N[C@@H](CSc1ccccc1)[C@H](O)CN1C[C@H]2CCCC[C@H]2C[C@H]1C(=O)NC(C)(C)C

$$$$

     RDKit          2D

 27 33  0  0  0  0  0  0  0  0999 V2000
   -2.4159   -1.6614    0.0000 C   0  0  0  0  0  0  0  0  0  0  0  0
   -1.7882   -0.2990    0.0000 C   0  0  0  0  0  0  0  0  0  0  0  0
   -1.1012   -1.6325    0.0000 C   0  0  0  0  0  0  0  0  0  0  0  0
    0.3971   -1.7042    0.0000 C   0  0  0  0  0  0  0  0  0  0  0  0
    1.2084   -0.4425    0.0000 C   0  0  0  0  0  0  0  0  0  0  0  0
    0.5214    0.8909    0.0000 C   0  0  0  0  0  0  0  0  0  0  0  0
    1.3326    2.1526    0.0000 C   0  0  0  0  0  0  0  0  0  0  0  0
    2.1439    3.4142    0.0000 C   0  0  0  0  0  0  0  0  0  0  0  0
    2.8309    2.0808    0.0000 C   0  0  0  0  0  0  0  0  0  0  0  0
    3.5179    0.7474    0.0000 C   0  0  0  0  0  0  0  0  0  0  0  0
    5.0162    0.6756    0.0000 C   0  0  0  0  0  0  0  0  0  0  0  0
    5.7032   -0.6578    0.0000 C   0  0  0  0  0  0  0  0  0  0  0  0
    7.2015   -0.7296    0.0000 O   0  0  0  0  0  0  0  0  0  0  0  0
    4.8919   -1.9195    0.0000 C   0  0  0  0  0  0  0  0  0  0  0  0
    3.3937   -1.8477    0.0000 C   0  0  0  0  0  0  0  0  0  0  0  0
    2.7067   -0.5143    0.0000 C   0  0  0  0  0  0  0  0  0  0  0  0
    1.8954   -1.7760    0.0000 C   0  0  0  0  0  0  0  0  0  0  0  0
   -0.9769    0.9626    0.0000 C   0  0  0  0  0  0  0  0  0  0  0  0
   -1.9261    2.1241    0.0000 C   0  0  0  0  0  0  0  0  0  0  0  0
   -3.0961    3.0628    0.0000 C   0  0  0  0  0  0  0  0  0  0  0  0
   -3.3241    1.5802    0.0000 C   0  0  0  0  0  0  0  0  0  0  0  0
   -3.2388    0.0826    0.0000 C   0  0  0  0  0  0  0  0  0  0  0  0
   -3.1536   -1.4149    0.0000 C   0  0  0  0  0  0  0  0  0  0  0  0
   -4.5515   -1.9588    0.0000 C   0  0  0  0  0  0  0  0  0  0  0  0
   -5.5007   -0.7973    0.0000 C   0  0  0  0  0  0  0  0  0  0  0  0
   -6.9983   -0.8826    0.0000 O   0  0  0  0  0  0  0  0  0  0  0  0
   -4.6894    0.4643    0.0000 O   0  0  0  0  0  0  0  0  0  0  0  0
  2  1  1  1
  2  3  1  0
  3  4  1  0
  5  4  1  1
  5  6  1  0
  6  7  1  6
  7  8  1  1
  9  8  1  1
  9 10  1  0
 10 11  2  0
 11 12  1  0
 12 13  2  0
 12 14  1  0
 14 15  1  0
 15 16  1  0
 16 17  1  1
  6 18  1  0
 18 19  1  1
 19 20  1  1
 21 20  1  1
 21 22  1  0
 22 23  1  6
 23 24  1  0
 24 25  1  0
 25 26  2  0
 25 27  1  0
 18  2  1  0
 21 19  1  0
 27 22  1  0
 22  2  1  0
 16  5  1  0
  9  7  1  0
 16 10  1  0
M  END
>  <zinc_id>  (73) 
ZINC000003927200

>  <smiles>  (73) 
C[C@]12CC[C@H]3[C@H]([C@@H]1[C@@H]1C[C@@H]1[C@@]21CCC(=O)O1)[C@H]1C[C@H]1C1=CC(=O)CC[C@@]13C

$$$$

     RDKit          3D

 35 35  0  0  0  0  0  0  0  0999 V2000
    6.6416   -1.8459   -3.5753 C   0  0  0  0  0  0  0  0  0  0  0  0
    7.3588   -0.6027   -3.1576 C   0  0  0  0  0  0  0  0  0  0  0  0
    6.9925   -0.1914   -1.7423 C   0  0  0  0  0  0  0  0  0  0  0  0
    7.3388   -1.2550   -0.7640 C   0  0  0  0  0  0  0  0  0  0  0  0
    7.0705   -1.0629    0.6309 C   0  0  0  0  0  0  0  0  0  0  0  0
    5.8368   -0.8846    1.2858 C   0  0  0  0  0  0  0  0  0  0  0  0
    4.8464    0.1358    1.0957 C   0  0  0  0  0  0  0  0  0  0  0  0
    4.2014    0.1783   -0.2269 C   0  0  0  0  0  0  0  0  0  0  0  0
    3.4572   -1.0979   -0.5583 C   0  0  0  0  0  0  0  0  0  0  0  0
    2.3942   -1.4082    0.3953 C   0  0  0  0  0  0  0  0  0  0  0  0
    1.3587   -0.2728    0.4287 C   0  0  0  0  0  0  0  0  0  0  0  0
    0.2379   -0.7102    1.4975 C   0  0  1  0  0  0  0  0  0  0  0  0
   -0.7037    0.5509    1.3904 C   0  0  0  0  0  0  0  0  0  0  0  0
   -1.2996    0.7499   -0.0478 C   0  0  2  0  0  0  0  0  0  0  0  0
   -0.0663    0.9547   -0.8544 O   0  0  0  0  0  0  0  0  0  0  0  0
   -0.1754    2.3347   -1.0438 C   0  0  0  0  0  0  0  0  0  0  0  0
    0.3545    3.2303   -1.7299 O   0  0  0  0  0  0  0  0  0  0  0  0
   -1.3425    2.4304    0.0299 C   0  0  1  0  0  0  0  0  0  0  0  0
   -2.5576    2.5376   -1.0653 C   0  0  0  0  0  0  0  0  0  0  0  0
   -2.7603    4.0141   -1.1499 C   0  0  0  0  0  0  0  0  0  0  0  0
   -3.1406    4.6536    0.1512 C   0  0  0  0  0  0  0  0  0  0  0  0
   -3.3266    6.1364   -0.0142 C   0  0  0  0  0  0  0  0  0  0  0  0
   -3.7098    6.7833    1.2927 C   0  0  0  0  0  0  0  0  0  0  0  0
   -5.0085    6.2175    1.8376 C   0  0  0  0  0  0  0  0  0  0  0  0
   -0.4462   -1.7653    0.6408 O   0  0  0  0  0  0  0  0  0  0  0  0
   -1.4511   -2.3687    1.3082 C   0  0  0  0  0  0  0  0  0  0  0  0
   -1.7017   -2.0309    2.4483 O   0  0  0  0  0  0  0  0  0  0  0  0
   -2.2857   -3.5177    0.5858 C   0  0  2  0  0  0  0  0  0  0  0  0
   -3.3094   -2.5122   -0.1865 C   0  0  0  0  0  0  0  0  0  0  0  0
   -4.2059   -3.4584   -0.9461 C   0  0  0  0  0  0  0  0  0  0  0  0
   -3.4787   -4.3296   -1.9241 C   0  0  0  0  0  0  0  0  0  0  0  0
   -5.1516   -2.5444   -1.7390 C   0  0  0  0  0  0  0  0  0  0  0  0
   -3.2639   -3.9144    1.7283 N   0  0  0  0  0  0  0  0  0  0  0  0
   -4.2346   -3.1230    2.1936 C   0  0  0  0  0  0  0  0  0  0  0  0
   -4.4695   -2.0111    1.7849 O   0  0  0  0  0  0  0  0  0  0  0  0
  1  2  1  0
  2  3  1  0
  3  4  1  0
  4  5  1  0
  5  6  1  0
  6  7  1  0
  7  8  1  0
  8  9  1  0
  9 10  1  0
 10 11  1  0
 12 11  1  6
 12 13  1  0
 14 13  1  1
 14 15  1  0
 15 16  1  0
 16 17  2  0
 16 18  1  0
 18 19  1  6
 19 20  1  0
 20 21  1  0
 21 22  1  0
 22 23  1  0
 23 24  1  0
 12 25  1  0
 25 26  1  0
 26 27  2  0
 26 28  1  0
 28 29  1  6
 29 30  1  0
 30 31  1  0
 30 32  1  0
 28 33  1  0
 33 34  1  0
 34 35  2  0
 18 14  1  0
M  END
>  <zinc_id>  (74) 
ZINC000008214635

>  <smiles>  (74) 
CCCCCCCCCCC[C@@H](C[C@@H]1OC(=O)[C@H]1CCCCCC)OC(=O)[C@H](CC(C)C)NC=O

$$$$

     RDKit          3D

 12 13  0  0  0  0  0  0  0  0999 V2000
   -1.9700   -2.2281   -1.3105 N   0  0  0  0  0  0  0  0  0  0  0  0
   -2.0062   -1.4318   -0.1769 N   0  0  0  0  0  0  0  0  0  0  0  0
   -1.3122   -0.1701   -0.0633 C   0  0  0  0  0  0  0  0  0  0  0  0
   -1.9577    0.9882   -0.0882 N   0  0  0  0  0  0  0  0  0  0  0  0
   -1.2718    2.1211    0.0334 N   0  0  0  0  0  0  0  0  0  0  0  0
    0.0683    2.1540    0.1797 C   0  0  0  0  0  0  0  0  0  0  0  0
    0.7780    0.9665    0.2053 C   0  0  0  0  0  0  0  0  0  0  0  0
    2.1386    0.9320    0.3596 C   0  0  0  0  0  0  0  0  0  0  0  0
    2.7721   -0.2886    0.3928 C   0  0  0  0  0  0  0  0  0  0  0  0
    2.0329   -1.4233    0.2712 C   0  0  0  0  0  0  0  0  0  0  0  0
    0.6656   -1.4387    0.1124 C   0  0  0  0  0  0  0  0  0  0  0  0
    0.0624   -0.1812    0.0844 C   0  0  0  0  0  0  0  0  0  0  0  0
  1  2  1  0
  2  3  1  0
  3  4  2  0
  4  5  1  0
  5  6  2  0
  6  7  1  0
  7  8  2  0
  8  9  1  0
  9 10  2  0
 10 11  1  0
 11 12  2  0
 12  3  1  0
 12  7  1  0
M  END
>  <zinc_id>  (75) 
ZINC000012360535

>  <smiles>  (75) 
NNc1nncc2ccccc12

$$$$

     RDKit          3D

 14 13  0  0  0  0  0  0  0  0999 V2000
   -2.7346    1.2757    0.3740 C   0  0  0  0  0  0  0  0  0  0  0  0
   -2.8787    0.8650    0.6713 C   0  0  0  0  0  0  0  0  0  0  0  0
   -2.8423   -0.7360    0.5693 C   0  0  1  0  0  0  0  0  0  0  0  0
   -3.7497   -0.8768   -0.7531 C   0  0  0  0  0  0  0  0  0  0  0  0
   -3.5040    0.1117   -1.6413 O   0  0  0  0  0  0  0  0  0  0  0  0
   -1.4799   -0.8124   -0.1686 N   0  0  0  0  0  0  0  0  0  0  0  0
   -0.5707   -0.2560    0.8358 C   0  0  0  0  0  0  0  0  0  0  0  0
    0.7791   -0.1758    0.2881 C   0  0  0  0  0  0  0  0  0  0  0  0
    1.7293    0.3432    1.2018 N   0  0  0  0  0  0  0  0  0  0  0  0
    3.1176    0.3940    0.5149 C   0  0  1  0  0  0  0  0  0  0  0  0
    3.2326   -1.2103    0.2946 C   0  0  0  0  0  0  0  0  0  0  0  0
    4.5457   -1.4764   -0.3766 C   0  0  0  0  0  0  0  0  0  0  0  0
    2.5243    0.6752   -0.9856 C   0  0  0  0  0  0  0  0  0  0  0  0
    1.8313    1.8788   -0.8149 O   0  0  0  0  0  0  0  0  0  0  0  0
  1  2  1  0
  3  2  1  6
  3  4  1  0
  4  5  1  0
  3  6  1  0
  6  7  1  0
  7  8  1  0
  8  9  1  0
  9 10  1  0
 10 11  1  6
 11 12  1  0
 10 13  1  0
 13 14  1  0
M  END
>  <zinc_id>  (76) 
ZINC000019364219

>  <smiles>  (76) 
CC[C@@H](CO)NCCN[C@@H](CC)CO

$$$$

     RDKit          2D

 17 18  0  0  0  0  0  0  0  0999 V2000
   -5.2259   -0.0425    0.0000 O   0  0  0  0  0  0  0  0  0  0  0  0
   -3.7273    0.0224    0.0000 C   0  0  0  0  0  0  0  0  0  0  0  0
   -3.0342    1.3527    0.0000 N   0  0  0  0  0  0  0  0  0  0  0  0
   -1.5357    1.4176    0.0000 C   0  0  0  0  0  0  0  0  0  0  0  0
   -0.8426    2.7479    0.0000 O   0  0  0  0  0  0  0  0  0  0  0  0
   -0.7301    0.1523    0.0000 N   0  0  0  0  0  0  0  0  0  0  0  0
    0.7685    0.2172    0.0000 C   0  0  0  0  0  0  0  0  0  0  0  0
    1.5968    1.4678    0.0000 C   0  0  0  0  0  0  0  0  0  0  0  0
    3.0421    1.0664    0.0000 C   0  0  0  0  0  0  0  0  0  0  0  0
    4.2163    1.9998    0.0000 O   0  0  0  0  0  0  0  0  0  0  0  0
    3.1070   -0.4322    0.0000 C   0  0  0  0  0  0  0  0  0  0  0  0
    4.3576   -1.2605    0.0000 C   0  0  0  0  0  0  0  0  0  0  0  0
    4.2655   -2.7577    0.0000 O   0  0  0  0  0  0  0  0  0  0  0  0
    1.7018   -0.9570    0.0000 O   0  0  0  0  0  0  0  0  0  0  0  0
   -1.4232   -1.1780    0.0000 C   0  0  0  0  0  0  0  0  0  0  0  0
   -2.9218   -1.2429    0.0000 C   0  0  0  0  0  0  0  0  0  0  0  0
   -3.6149   -2.5732    0.0000 F   0  0  0  0  0  0  0  0  0  0  0  0
  1  2  2  0
  2  3  1  0
  3  4  1  0
  4  5  2  0
  4  6  1  0
  7  6  1  1
  7  8  1  0
  8  9  1  0
  9 10  1  6
  9 11  1  0
 11 12  1  1
 12 13  1  0
 11 14  1  0
  6 15  1  0
 15 16  2  0
 16 17  1  0
 16  2  1  0
 14  7  1  0
M  END
>  <zinc_id>  (77) 
ZINC000003813010

>  <smiles>  (77) 
O=c1[nH]c(=O)n([C@H]2C[C@H](O)[C@@H](CO)O2)cc1F

$$$$

     RDKit          3D

 35 37  0  0  0  0  0  0  0  0999 V2000
    0.5840   -2.8240    0.6603 C   0  0  0  0  0  0  0  0  0  0  0  0
   -0.0028   -2.1017   -0.7111 C   0  0  2  0  0  0  0  0  0  0  0  0
    0.4056   -0.5802   -0.2151 C   0  0  0  0  0  0  0  0  0  0  0  0
    1.8784   -0.6057   -0.0359 C   0  0  0  0  0  0  0  0  0  0  0  0
    2.4678   -0.9407    1.1596 C   0  0  0  0  0  0  0  0  0  0  0  0
    3.8454   -0.9361    1.2337 C   0  0  0  0  0  0  0  0  0  0  0  0
    4.6241   -0.6014    0.1312 C   0  0  0  0  0  0  0  0  0  0  0  0
    4.0661   -0.2632   -1.0807 C   0  0  0  0  0  0  0  0  0  0  0  0
    4.8058    0.0467   -2.2775 C   0  0  0  0  0  0  0  0  0  0  0  0
    4.0834    0.6041   -3.3725 N   0  0  0  0  0  0  0  0  0  0  0  0
    6.0048   -0.1195   -2.4557 O   0  0  0  0  0  0  0  0  0  0  0  0
    2.6655   -0.2859   -1.0913 C   0  0  0  0  0  0  0  0  0  0  0  0
    5.9615   -0.6573    0.5930 N   0  0  0  0  0  0  0  0  0  0  0  0
    7.0932    0.0741    0.1062 C   0  0  0  0  0  0  0  0  0  0  0  0
    7.4724    1.0730    1.2075 C   0  0  0  0  0  0  0  0  0  0  0  0
    8.6525    1.9131    0.8246 C   0  0  0  0  0  0  0  0  0  0  0  0
    8.4174    2.6640   -0.3303 O   0  0  0  0  0  0  0  0  0  0  0  0
    6.0338   -1.5985    1.7160 C   0  0  0  0  0  0  0  0  0  0  0  0
    4.7077   -1.2809    2.4024 C   0  0  0  0  0  0  0  0  0  0  0  0
   -1.4824   -2.0263   -0.1841 N   0  0  0  0  0  0  0  0  0  0  0  0
   -1.5530   -1.2242    0.9484 C   0  0  0  0  0  0  0  0  0  0  0  0
   -2.8005   -1.0197    1.6438 C   0  0  0  0  0  0  0  0  0  0  0  0
   -3.8669   -0.4667    1.0467 O   0  0  0  0  0  0  0  0  0  0  0  0
   -4.6768   -0.7814   -0.0128 C   0  0  0  0  0  0  0  0  0  0  0  0
   -4.5149   -1.9165   -0.7793 C   0  0  0  0  0  0  0  0  0  0  0  0
   -5.2994   -2.2567   -1.8337 C   0  0  0  0  0  0  0  0  0  0  0  0
   -6.3347   -1.4074   -2.1652 C   0  0  0  0  0  0  0  0  0  0  0  0
   -6.5311   -0.2520   -1.4163 C   0  0  0  0  0  0  0  0  0  0  0  0
   -5.7291    0.0673   -0.3618 C   0  0  0  0  0  0  0  0  0  0  0  0
   -5.9377    1.2050    0.3620 O   0  0  0  0  0  0  0  0  0  0  0  0
   -6.9783    2.1283    0.0869 C   0  0  0  0  0  0  0  0  0  0  0  0
   -6.9927    3.2872    1.0279 C   0  0  0  0  0  0  0  0  0  0  0  0
   -7.1620    2.9354    2.3455 F   0  0  0  0  0  0  0  0  0  0  0  0
   -5.8491    4.0440    0.9102 F   0  0  0  0  0  0  0  0  0  0  0  0
   -8.0581    4.1036    0.6604 F   0  0  0  0  0  0  0  0  0  0  0  0
  2  1  1  1
  2  3  1  0
  3  4  1  0
  4  5  2  0
  5  6  1  0
  6  7  2  0
  7  8  1  0
  8  9  1  0
  9 10  1  0
  9 11  2  0
  8 12  2  0
  7 13  1  0
 13 14  1  0
 14 15  1  0
 15 16  1  0
 16 17  1  0
 13 18  1  0
 18 19  1  0
  2 20  1  0
 20 21  1  0
 21 22  1  0
 22 23  1  0
 23 24  1  0
 24 25  2  0
 25 26  1  0
 26 27  2  0
 27 28  1  0
 28 29  2  0
 29 30  1  0
 30 31  1  0
 31 32  1  0
 32 33  1  0
 32 34  1  0
 32 35  1  0
 12  4  1  0
 29 24  1  0
 19  6  1  0
M  END
>  <zinc_id>  (78) 
ZINC000003806063

>  <smiles>  (78) 
C[C@H](Cc1cc2c(c(C(N)=O)c1)N(CCCO)CC2)NCCOc1ccccc1OCC(F)(F)F

$$$$

     RDKit          3D

 22 25  0  0  0  0  0  0  0  0999 V2000
    3.0759    0.1898   -2.4905 C   0  0  0  0  0  0  0  0  0  0  0  0
    3.7490    0.0882   -1.3578 C   0  0  0  0  0  0  0  0  0  0  0  0
    4.9867    0.6380   -1.1537 N   0  0  0  0  0  0  0  0  0  0  0  0
    5.4563    0.3576    0.0628 C   0  0  0  0  0  0  0  0  0  0  0  0
    4.4965   -0.3997    0.6769 C   0  0  0  0  0  0  0  0  0  0  0  0
    3.4583   -0.5489   -0.2187 N   0  0  0  0  0  0  0  0  0  0  0  0
    2.2930   -1.2823    0.1978 C   0  0  0  0  0  0  0  0  0  0  0  0
    1.4164   -0.2401    1.0800 C   0  0  1  0  0  0  0  0  0  0  0  0
    1.1910    0.8502   -0.1002 C   0  0  0  0  0  0  0  0  0  0  0  0
    0.1909    1.8203    0.5083 C   0  0  0  0  0  0  0  0  0  0  0  0
   -1.1409    1.1562    0.3817 C   0  0  0  0  0  0  0  0  0  0  0  0
   -1.1409   -0.2239    0.5857 C   0  0  0  0  0  0  0  0  0  0  0  0
   -2.4794   -0.5931    0.4143 C   0  0  0  0  0  0  0  0  0  0  0  0
   -3.1405   -1.8002    0.4811 C   0  0  0  0  0  0  0  0  0  0  0  0
   -4.5232   -1.8359    0.2530 C   0  0  0  0  0  0  0  0  0  0  0  0
   -5.1871   -0.6845   -0.0292 C   0  0  0  0  0  0  0  0  0  0  0  0
   -4.5465    0.5263   -0.1001 C   0  0  0  0  0  0  0  0  0  0  0  0
   -3.1716    0.5580    0.1273 C   0  0  0  0  0  0  0  0  0  0  0  0
   -2.3559    1.6062    0.1101 N   0  0  0  0  0  0  0  0  0  0  0  0
   -2.6789    2.9911   -0.1491 C   0  0  0  0  0  0  0  0  0  0  0  0
    0.0326   -0.9766    0.8960 C   0  0  0  0  0  0  0  0  0  0  0  0
    0.0183   -2.1967    1.0305 O   0  0  0  0  0  0  0  0  0  0  0  0
  1  2  1  0
  2  3  2  0
  3  4  1  0
  4  5  2  0
  5  6  1  0
  6  7  1  0
  8  7  1  6
  8  9  1  0
  9 10  1  0
 10 11  1  0
 11 12  2  0
 12 13  1  0
 13 14  2  0
 14 15  1  0
 15 16  2  0
 16 17  1  0
 17 18  2  0
 18 19  1  0
 19 20  1  0
 12 21  1  0
 21 22  2  0
  6  2  1  0
 21  8  1  0
 19 11  1  0
 18 13  1  0
M  END
>  <zinc_id>  (79) 
ZINC000000004448

>  <smiles>  (79) 
Cc1nccn1C[C@H]1CCc2c(c3ccccc3n2C)C1=O

$$$$

     RDKit          3D

 22 22  0  0  0  0  0  0  0  0999 V2000
   -0.1457    2.9086    1.4263 C   0  0  0  0  0  0  0  0  0  0  0  0
    0.2532    1.5621    0.9011 C   0  0  0  0  0  0  0  0  0  0  0  0
   -0.7235    0.5405    0.5573 C   0  0  0  0  0  0  0  0  0  0  0  0
   -1.9824    0.8249    0.7184 C   0  0  0  0  0  0  0  0  0  0  0  0
   -3.1449    0.0487    0.4751 C   0  0  0  0  0  0  0  0  0  0  0  0
   -4.3791    0.5087    0.7016 C   0  0  0  0  0  0  0  0  0  0  0  0
   -4.5769    1.8655    1.2223 C   0  0  0  0  0  0  0  0  0  0  0  0
   -5.5303   -0.3868    0.4139 C   0  0  0  0  0  0  0  0  0  0  0  0
   -5.3697   -1.0283   -0.9368 C   0  0  0  0  0  0  0  0  0  0  0  0
   -3.9883   -1.5029   -1.2341 C   0  0  0  0  0  0  0  0  0  0  0  0
   -3.0588   -1.3295   -0.0492 C   0  0  0  0  0  0  0  0  0  0  0  0
   -1.6850   -1.7665   -0.4144 C   0  0  0  0  0  0  0  0  0  0  0  0
   -3.5559   -2.2436    1.0588 C   0  0  0  0  0  0  0  0  0  0  0  0
    1.5239    1.2646    0.7347 C   0  0  0  0  0  0  0  0  0  0  0  0
    1.8666   -0.0512    0.2235 C   0  0  0  0  0  0  0  0  0  0  0  0
    3.1460   -0.3347    0.0619 C   0  0  0  0  0  0  0  0  0  0  0  0
    4.1388    0.6597    0.3948 C   0  0  0  0  0  0  0  0  0  0  0  0
    3.7519    1.9861    0.9119 C   0  0  0  0  0  0  0  0  0  0  0  0
    5.4078    0.3766    0.2339 C   0  0  0  0  0  0  0  0  0  0  0  0
    5.8333   -0.9233   -0.2748 C   0  0  0  0  0  0  0  0  0  0  0  0
    5.0097   -1.8148   -0.5761 O   0  0  0  0  0  0  0  0  0  0  0  0
    7.2094   -1.1643   -0.4245 O   0  0  0  0  0  0  0  0  0  0  0  0
  1  2  1  0
  2  3  1  0
  3  4  2  0
  4  5  1  0
  5  6  2  0
  6  7  1  0
  6  8  1  0
  8  9  1  0
  9 10  1  0
 10 11  1  0
 11 12  1  0
 11 13  1  0
  2 14  2  0
 14 15  1  0
 15 16  2  0
 16 17  1  0
 17 18  1  0
 17 19  2  0
 19 20  1  0
 20 21  2  0
 20 22  1  0
 11  5  1  0
M  END
>  <zinc_id>  (80) 
ZINC000009212654

>  <smiles>  (80) 
CC1=C(/C=C/C(C)=C\C=C/C(C)=C\C(=O)O)C(C)(C)CCC1

$$$$

     RDKit          3D

 29 30  0  0  0  0  0  0  0  0999 V2000
    1.3562    1.8527   -1.6700 C   0  0  0  0  0  0  0  0  0  0  0  0
    1.2924    0.5176   -0.9626 C   0  0  2  0  0  0  0  0  0  0  0  0
    2.0273    0.5888    0.2131 O   0  0  0  0  0  0  0  0  0  0  0  0
    1.6327   -0.6336   -1.8451 C   0  0  0  0  0  0  0  0  0  0  0  0
    3.2493   -0.5575   -2.5316 S   0  0  0  0  0  0  0  0  0  0  0  0
    3.4105   -1.7701   -3.4355 O   0  0  0  0  0  0  0  0  0  0  0  0
    3.3629    0.6478   -3.4325 O   0  0  0  0  0  0  0  0  0  0  0  0
    4.4564   -0.5299   -1.2945 C   0  0  0  0  0  0  0  0  0  0  0  0
    4.9621    0.6216   -0.7489 C   0  0  0  0  0  0  0  0  0  0  0  0
    5.9280    0.6313    0.2406 C   0  0  0  0  0  0  0  0  0  0  0  0
    6.3804   -0.6063    0.6744 C   0  0  0  0  0  0  0  0  0  0  0  0
    7.3285   -0.6555    1.6443 F   0  0  0  0  0  0  0  0  0  0  0  0
    5.9055   -1.7741    0.1599 C   0  0  0  0  0  0  0  0  0  0  0  0
    4.9431   -1.7385   -0.8250 C   0  0  0  0  0  0  0  0  0  0  0  0
   -0.1427    0.3498   -0.5323 C   0  0  0  0  0  0  0  0  0  0  0  0
   -1.0185    0.2597   -1.4304 O   0  0  0  0  0  0  0  0  0  0  0  0
   -0.5465    0.2898    0.8114 N   0  0  0  0  0  0  0  0  0  0  0  0
   -1.8939    0.1321    1.2300 C   0  0  0  0  0  0  0  0  0  0  0  0
   -2.1414    0.0897    2.5839 C   0  0  0  0  0  0  0  0  0  0  0  0
   -3.4249   -0.0614    3.0668 C   0  0  0  0  0  0  0  0  0  0  0  0
   -4.4982   -0.1744    2.2078 C   0  0  0  0  0  0  0  0  0  0  0  0
   -5.8527   -0.3338    2.7135 C   0  0  0  0  0  0  0  0  0  0  0  0
   -6.9345   -0.4590    3.1061 N   0  0  0  0  0  0  0  0  0  0  0  0
   -4.2366   -0.1304    0.8554 C   0  0  0  0  0  0  0  0  0  0  0  0
   -5.3891   -0.2514   -0.0982 C   0  0  0  0  0  0  0  0  0  0  0  0
   -6.2340    0.8039    0.1787 F   0  0  0  0  0  0  0  0  0  0  0  0
   -6.0462   -1.4492    0.1552 F   0  0  0  0  0  0  0  0  0  0  0  0
   -4.9223   -0.1901   -1.3932 F   0  0  0  0  0  0  0  0  0  0  0  0
   -2.9536    0.0208    0.3588 C   0  0  0  0  0  0  0  0  0  0  0  0
  2  1  1  6
  2  3  1  0
  2  4  1  0
  4  5  1  0
  5  6  2  0
  5  7  2  0
  5  8  1  0
  8  9  2  0
  9 10  1  0
 10 11  2  0
 11 12  1  0
 11 13  1  0
 13 14  2  0
  2 15  1  0
 15 16  2  0
 15 17  1  0
 17 18  1  0
 18 19  2  0
 19 20  1  0
 20 21  2  0
 21 22  1  0
 22 23  3  0
 21 24  1  0
 24 25  1  0
 25 26  1  0
 25 27  1  0
 25 28  1  0
 24 29  2  0
 14  8  1  0
 29 18  1  0
M  END
>  <zinc_id>  (81) 
ZINC000000538564

>  <smiles>  (81) 
C[C@](O)(CS(=O)(=O)c1ccc(F)cc1)C(=O)Nc1ccc(C#N)c(C(F)(F)F)c1

$$$$

     RDKit          3D

 35 38  0  0  0  0  0  0  0  0999 V2000
    2.1936    3.0068   -3.0747 C   0  0  0  0  0  0  0  0  0  0  0  0
    3.4213    2.1893   -3.1262 C   0  0  0  0  0  0  0  0  0  0  0  0
    3.0328    0.8922   -2.6348 O   0  0  0  0  0  0  0  0  0  0  0  0
    2.5235    0.7682   -1.3430 C   0  0  0  0  0  0  0  0  0  0  0  0
    2.4458    1.8417   -0.6929 O   0  0  0  0  0  0  0  0  0  0  0  0
    2.1317   -0.4878   -0.8275 O   0  0  0  0  0  0  0  0  0  0  0  0
    1.6271   -0.4548    0.4933 C   0  0  2  0  0  0  0  0  0  0  0  0
    2.6726    0.0121    1.3872 C   0  0  0  0  0  0  0  0  0  0  0  0
    2.4020    0.4976    2.4716 O   0  0  0  0  0  0  0  0  0  0  0  0
    4.0968   -0.0572    1.0895 C   0  0  0  0  0  0  0  0  0  0  0  0
    4.5227   -0.7972    0.0023 O   0  0  0  0  0  0  0  0  0  0  0  0
    5.8783   -0.8737   -0.2800 C   0  0  0  0  0  0  0  0  0  0  0  0
    6.7566   -0.3017    0.4093 O   0  0  0  0  0  0  0  0  0  0  0  0
    6.3560   -1.6585   -1.4431 C   0  0  0  0  0  0  0  0  0  0  0  0
    6.9073   -3.0085   -1.0824 C   0  0  0  0  0  0  0  0  0  0  0  0
    1.4622   -1.9237    1.0135 C   0  0  0  0  0  0  0  0  0  0  0  0
    0.2929   -1.6228    1.9854 C   0  0  0  0  0  0  0  0  0  0  0  0
   -0.5948   -1.2142    0.6829 C   0  0  1  0  0  0  0  0  0  0  0  0
   -1.8877   -0.4694    1.4822 C   0  0  2  0  0  0  0  0  0  0  0  0
   -2.6878   -1.8409    1.6485 C   0  0  0  0  0  0  0  0  0  0  0  0
   -3.9997   -1.3148    2.3098 C   0  0  0  0  0  0  0  0  0  0  0  0
   -4.6757   -0.5344    1.1813 C   0  0  0  0  0  0  0  0  0  0  0  0
   -5.8641   -0.8447    0.8655 C   0  0  0  0  0  0  0  0  0  0  0  0
   -6.6557   -0.1961   -0.2083 C   0  0  0  0  0  0  0  0  0  0  0  0
   -7.8177   -0.5168   -0.4976 O   0  0  0  0  0  0  0  0  0  0  0  0
   -5.8991    0.8580   -0.8761 C   0  0  0  0  0  0  0  0  0  0  0  0
   -4.6974    1.1363   -0.5173 C   0  0  0  0  0  0  0  0  0  0  0  0
   -3.9456    0.5142    0.5260 C   0  0  1  0  0  0  0  0  0  0  0  0
   -3.5993    1.6408    1.4799 C   0  0  0  0  0  0  0  0  0  0  0  0
   -2.5588   -0.1037   -0.0455 C   0  0  1  0  0  0  0  0  0  0  0  0
   -1.6898    1.3770   -0.0970 C   0  0  2  0  0  0  0  0  0  0  0  0
   -2.2344    1.6723   -1.5127 O   0  0  0  0  0  0  0  0  0  0  0  0
   -0.3272    0.6524   -0.7183 C   0  0  0  0  0  0  0  0  0  0  0  0
    0.2826    0.1572    0.5442 C   0  0  2  0  0  0  0  0  0  0  0  0
    0.1291    1.0051    1.7207 C   0  0  0  0  0  0  0  0  0  0  0  0
  1  2  1  0
  2  3  1  0
  3  4  1  0
  4  5  2  0
  4  6  1  0
  7  6  1  6
  7  8  1  0
  8  9  2  0
  8 10  1  0
 10 11  1  0
 11 12  1  0
 12 13  2  0
 12 14  1  0
 14 15  1  0
  7 16  1  0
 16 17  1  0
 18 17  1  1
 18 19  1  0
 19 20  1  1
 20 21  1  0
 21 22  1  0
 22 23  2  0
 23 24  1  0
 24 25  2  0
 24 26  1  0
 26 27  2  0
 27 28  1  0
 28 29  1  1
 28 30  1  0
 30 31  1  1
 31 32  1  6
 31 33  1  0
 33 34  1  0
 34 35  1  1
 34  7  1  0
 34 18  1  0
 30 19  1  0
 28 22  1  0
M  END
>  <zinc_id>  (82) 
ZINC000118913562

>  <smiles>  (82) 
CCOC(=O)O[C@]1(C(=O)COC(=O)CC)CC[C@H]2[C@@H]3CCC4=CC(=O)C=C[C@]4(C)[C@H]3[C@H](O)C[C@@]21C

$$$$

     RDKit          3D

 30 31  0  0  0  0  0  0  0  0999 V2000
    6.7984   -0.0406    0.4196 C   0  0  0  0  0  0  0  0  0  0  0  0
    5.7014   -0.2418    1.2530 O   0  0  0  0  0  0  0  0  0  0  0  0
    5.0546   -1.4293    1.0312 C   0  0  0  0  0  0  0  0  0  0  0  0
    4.5043   -1.6118   -0.3358 C   0  0  0  0  0  0  0  0  0  0  0  0
    3.5506   -0.6377   -0.7092 O   0  0  0  0  0  0  0  0  0  0  0  0
    2.3732   -0.4628    0.0061 C   0  0  0  0  0  0  0  0  0  0  0  0
    2.2130   -1.2076    0.9833 O   0  0  0  0  0  0  0  0  0  0  0  0
    1.3940    0.5727   -0.4178 C   0  0  0  0  0  0  0  0  0  0  0  0
    1.6498    1.2718   -1.4169 C   0  0  0  0  0  0  0  0  0  0  0  0
    2.9353    1.0739   -2.1898 C   0  0  0  0  0  0  0  0  0  0  0  0
    0.6999    2.2267   -1.7713 N   0  0  0  0  0  0  0  0  0  0  0  0
   -0.4828    2.4477   -1.1046 C   0  0  0  0  0  0  0  0  0  0  0  0
   -1.4543    3.5009   -1.5548 C   0  0  0  0  0  0  0  0  0  0  0  0
   -0.7851    1.7644   -0.0874 C   0  0  0  0  0  0  0  0  0  0  0  0
   -2.0443    1.9532    0.6755 C   0  0  0  0  0  0  0  0  0  0  0  0
   -2.2613    1.2442    1.6557 O   0  0  0  0  0  0  0  0  0  0  0  0
   -2.9140    2.9065    0.2605 O   0  0  0  0  0  0  0  0  0  0  0  0
   -4.1618    3.1764    0.9219 C   0  0  0  0  0  0  0  0  0  0  0  0
   -4.9032    4.2910    0.2227 C   0  0  0  0  0  0  0  0  0  0  0  0
   -4.9984    1.9138    0.7472 C   0  0  0  0  0  0  0  0  0  0  0  0
    0.1353    0.6090    0.5195 C   0  0  1  0  0  0  0  0  0  0  0  0
   -0.6226   -0.6398   -0.1092 C   0  0  0  0  0  0  0  0  0  0  0  0
   -1.0193   -0.6565   -1.3892 C   0  0  0  0  0  0  0  0  0  0  0  0
   -1.6719   -1.7727   -1.8692 C   0  0  0  0  0  0  0  0  0  0  0  0
   -1.8956   -2.8345   -1.0200 C   0  0  0  0  0  0  0  0  0  0  0  0
   -1.5002   -2.8473    0.2995 C   0  0  0  0  0  0  0  0  0  0  0  0
   -1.7346   -3.9352    1.1526 N   0  0  0  0  0  0  0  0  0  0  0  0
   -1.3434   -3.8665    2.3370 O   0  0  0  0  0  0  0  0  0  0  0  0
   -2.3720   -5.0848    0.7722 O   0  0  0  0  0  0  0  0  0  0  0  0
   -0.8448   -1.6832    0.7175 C   0  0  0  0  0  0  0  0  0  0  0  0
  1  2  1  0
  2  3  1  0
  3  4  1  0
  4  5  1  0
  5  6  1  0
  6  7  2  0
  6  8  1  0
  8  9  2  0
  9 10  1  0
  9 11  1  0
 11 12  1  0
 12 13  1  0
 12 14  2  0
 14 15  1  0
 15 16  2  0
 15 17  1  0
 17 18  1  0
 18 19  1  0
 18 20  1  0
 14 21  1  0
 21 22  1  6
 22 23  2  0
 23 24  1  0
 24 25  2  0
 25 26  1  0
 26 27  1  0
 27 28  2  0
 27 29  1  0
 26 30  2  0
 21  8  1  0
 30 22  1  0
M  CHG  2  27   1  29  -1
M  END
>  <zinc_id>  (83) 
ZINC000019632718

>  <smiles>  (83) 
COCCOC(=O)C1=C(C)NC(C)=C(C(=O)OC(C)C)[C@H]1c1cccc([N+](=O)[O-])c1

$$$$

     RDKit          3D

 28 31  0  0  0  0  0  0  0  0999 V2000
   -4.5093    2.9427    2.4168 C   0  0  0  0  0  0  0  0  0  0  0  0
   -4.3743    2.6821    2.1014 O   0  0  0  0  0  0  0  0  0  0  0  0
   -3.8356    1.7759    1.1596 C   0  0  0  0  0  0  0  0  0  0  0  0
   -2.7952    0.9247    1.4749 C   0  0  0  0  0  0  0  0  0  0  0  0
   -2.3550    0.0853    0.4705 C   0  0  0  0  0  0  0  0  0  0  0  0
   -2.8846    0.0538   -0.7929 C   0  0  0  0  0  0  0  0  0  0  0  0
   -3.9368    0.9286   -1.0794 C   0  0  0  0  0  0  0  0  0  0  0  0
   -4.3981    1.7804   -0.0934 C   0  0  0  0  0  0  0  0  0  0  0  0
   -5.4476    2.6642   -0.3521 O   0  0  0  0  0  0  0  0  0  0  0  0
   -6.0885    2.7497   -1.5884 C   0  0  0  0  0  0  0  0  0  0  0  0
   -2.1783   -0.9510   -1.5612 C   0  0  0  0  0  0  0  0  0  0  0  0
   -2.5968   -1.6838   -2.4403 O   0  0  0  0  0  0  0  0  0  0  0  0
   -0.7238   -0.8630   -0.9781 C   0  0  2  0  0  0  0  0  0  0  0  0
   -0.4412   -2.4646   -1.0178 C   0  0  0  0  0  0  0  0  0  0  0  0
    0.9554   -2.6371   -0.4828 C   0  0  0  0  0  0  0  0  0  0  0  0
    1.9725   -1.9054   -1.3162 C   0  0  0  0  0  0  0  0  0  0  0  0
    3.3438   -2.3322   -0.8677 C   0  0  0  0  0  0  0  0  0  0  0  0
    3.4689   -2.4294    0.5729 N   0  0  0  0  0  0  0  0  0  0  0  0
    4.7516   -1.8584    0.9400 C   0  0  0  0  0  0  0  0  0  0  0  0
    4.8565   -0.4422    0.5345 C   0  0  0  0  0  0  0  0  0  0  0  0
    5.3630   -0.1349   -0.7262 C   0  0  0  0  0  0  0  0  0  0  0  0
    5.4665    1.1840   -1.1178 C   0  0  0  0  0  0  0  0  0  0  0  0
    5.0850    2.2072   -0.3023 C   0  0  0  0  0  0  0  0  0  0  0  0
    4.5803    1.9165    0.9523 C   0  0  0  0  0  0  0  0  0  0  0  0
    4.4817    0.5954    1.3322 C   0  0  0  0  0  0  0  0  0  0  0  0
    2.4286   -1.6215    1.1672 C   0  0  0  0  0  0  0  0  0  0  0  0
    1.0679   -2.2686    0.9861 C   0  0  0  0  0  0  0  0  0  0  0  0
   -1.2566   -0.8985    0.5820 C   0  0  0  0  0  0  0  0  0  0  0  0
  1  2  1  0
  2  3  1  0
  3  4  2  0
  4  5  1  0
  5  6  2  0
  6  7  1  0
  7  8  2  0
  8  9  1  0
  9 10  1  0
  6 11  1  0
 11 12  2  0
 11 13  1  0
 13 14  1  6
 14 15  1  0
 15 16  1  0
 16 17  1  0
 17 18  1  0
 18 19  1  0
 19 20  1  0
 20 21  2  0
 21 22  1  0
 22 23  2  0
 23 24  1  0
 24 25  2  0
 18 26  1  0
 26 27  1  0
 13 28  1  0
  8  3  1  0
 27 15  1  0
 28  5  1  0
 25 20  1  0
M  END
>  <zinc_id>  (84) 
ZINC000000897251

>  <smiles>  (84) 
COc1cc2c(cc1OC)C(=O)[C@H](CC1CCN(Cc3ccccc3)CC1)C2

$$$$

     RDKit          3D

 25 27  0  0  0  0  0  0  0  0999 V2000
    7.6051    0.8606    0.4764 C   0  0  0  0  0  0  0  0  0  0  0  0
    6.4811    1.4052    0.2238 C   0  0  0  0  0  0  0  0  0  0  0  0
    5.4122    0.4199   -0.0354 C   0  0  0  0  0  0  0  0  0  0  0  0
    4.6482   -0.0532    0.9987 C   0  0  0  0  0  0  0  0  0  0  0  0
    3.6563   -0.9816    0.6833 C   0  0  0  0  0  0  0  0  0  0  0  0
    3.4606   -1.3986   -0.6125 C   0  0  0  0  0  0  0  0  0  0  0  0
    2.4208   -2.3798   -0.9848 C   0  0  0  0  0  0  0  0  0  0  0  0
    1.1590   -1.5644   -1.3003 C   0  0  0  0  0  0  0  0  0  0  0  0
    0.8559   -0.8664   -0.1097 O   0  0  0  0  0  0  0  0  0  0  0  0
   -0.2588   -0.0462   -0.1367 C   0  0  0  0  0  0  0  0  0  0  0  0
   -0.6561    0.6913    0.9762 C   0  0  0  0  0  0  0  0  0  0  0  0
   -1.7702    1.5025    0.9275 C   0  0  0  0  0  0  0  0  0  0  0  0
   -2.5568    1.6410   -0.2020 C   0  0  0  0  0  0  0  0  0  0  0  0
   -3.7151    2.5291   -0.1627 C   0  0  0  0  0  0  0  0  0  0  0  0
   -5.0256    1.8132    0.3185 C   0  0  2  0  0  0  0  0  0  0  0  0
   -4.4845    1.2554    2.0176 S   0  0  0  0  0  0  0  0  0  0  0  0
   -4.4680   -0.4861    1.6730 C   0  0  0  0  0  0  0  0  0  0  0  0
   -4.4207   -1.4213    2.4869 O   0  0  0  0  0  0  0  0  0  0  0  0
   -4.5194   -0.5886    0.2914 N   0  0  0  0  0  0  0  0  0  0  0  0
   -4.9057    0.5090   -0.4051 C   0  0  0  0  0  0  0  0  0  0  0  0
   -5.1773    0.4919   -1.6605 O   0  0  0  0  0  0  0  0  0  0  0  0
   -2.1446    0.9021   -1.2907 C   0  0  0  0  0  0  0  0  0  0  0  0
   -1.0357    0.0857   -1.2648 C   0  0  0  0  0  0  0  0  0  0  0  0
    4.2366   -0.9040   -1.5884 N   0  0  0  0  0  0  0  0  0  0  0  0
    5.2024   -0.0072   -1.3195 C   0  0  0  0  0  0  0  0  0  0  0  0
  1  2  1  0
  2  3  1  0
  3  4  2  0
  4  5  1  0
  5  6  2  0
  6  7  1  0
  7  8  1  0
  8  9  1  0
  9 10  1  0
 10 11  2  0
 11 12  1  0
 12 13  2  0
 13 14  1  0
 15 14  1  6
 15 16  1  0
 16 17  1  0
 17 18  2  0
 17 19  1  0
 19 20  1  0
 20 21  2  0
 13 22  1  0
 22 23  2  0
  6 24  1  0
 24 25  2  0
 25  3  1  0
 23 10  1  0
 20 15  1  0
M  END
>  <zinc_id>  (85) 
ZINC000000968326

>  <smiles>  (85) 
CCc1ccc(CCOc2ccc(C[C@@H]3SC(=O)NC3=O)cc2)nc1

$$$$

     RDKit          3D

 15 15  0  0  0  0  0  0  0  0999 V2000
    3.5950    0.3258   -0.7308 C   0  0  0  0  0  0  0  0  0  0  0  0
    2.2874    0.2411   -0.9885 C   0  0  0  0  0  0  0  0  0  0  0  0
    1.6234    0.6360    0.4301 C   0  0  2  0  0  0  0  0  0  0  0  0
    2.3196   -0.5853    1.2446 C   0  0  0  0  0  0  0  0  0  0  0  0
    0.2130   -0.0801    0.1591 C   0  0  0  0  0  0  0  0  0  0  0  0
    0.2627   -1.5022   -0.0639 C   0  0  0  0  0  0  0  0  0  0  0  0
    1.0382   -2.0465   -1.2051 C   0  0  0  0  0  0  0  0  0  0  0  0
   -0.4512    0.6984   -0.9289 C   0  0  0  0  0  0  0  0  0  0  0  0
    0.1809    1.5349   -1.5944 O   0  0  0  0  0  0  0  0  0  0  0  0
   -1.8205    0.4153   -1.1358 N   0  0  0  0  0  0  0  0  0  0  0  0
   -2.6655   -0.0148   -0.0415 C   0  0  0  0  0  0  0  0  0  0  0  0
   -3.8851   -0.2721   -0.2017 O   0  0  0  0  0  0  0  0  0  0  0  0
   -1.9920   -0.1162    1.2129 N   0  0  0  0  0  0  0  0  0  0  0  0
   -0.6167    0.1730    1.3985 C   0  0  0  0  0  0  0  0  0  0  0  0
   -0.0892    0.5928    2.4454 O   0  0  0  0  0  0  0  0  0  0  0  0
  1  2  1  0
  2  3  1  0
  3  4  1  1
  3  5  1  0
  5  6  1  0
  6  7  1  0
  5  8  1  0
  8  9  2  0
  8 10  1  0
 10 11  1  0
 11 12  2  0
 11 13  1  0
 13 14  1  0
 14 15  2  0
 14  5  1  0
M  END
>  <zinc_id>  (86) 
ZINC000000968345

>  <smiles>  (86) 
CC[C@H](C)C1(CC)C(=O)NC(=O)NC1=O

$$$$

     RDKit          3D

 11 10  0  0  0  0  0  0  0  0999 V2000
    3.3870    1.3963    0.1809 C   0  0  0  0  0  0  0  0  0  0  0  0
    2.5178    0.2143    0.0406 C   0  0  0  0  0  0  0  0  0  0  0  0
    2.7692   -0.8191    0.6885 O   0  0  0  0  0  0  0  0  0  0  0  0
    1.4067    0.2592   -0.8261 N   0  0  0  0  0  0  0  0  0  0  0  0
    0.5810   -0.9429   -0.9244 C   0  0  0  0  0  0  0  0  0  0  0  0
    0.0316   -1.2404    0.4743 C   0  0  0  0  0  0  0  0  0  0  0  0
   -0.8035   -0.0535    0.9491 C   0  0  0  0  0  0  0  0  0  0  0  0
   -2.1549    0.2133   -0.1767 S   0  0  0  0  0  0  0  0  0  0  0  0
   -1.6602    0.4915   -1.5725 O   0  0  0  0  0  0  0  0  0  0  0  0
   -3.0164   -1.0295   -0.1430 O   0  0  0  0  0  0  0  0  0  0  0  0
   -3.0583    1.5106    0.3521 O   0  0  0  0  0  0  0  0  0  0  0  0
  1  2  1  0
  2  3  2  0
  2  4  1  0
  4  5  1  0
  5  6  1  0
  6  7  1  0
  7  8  1  0
  8  9  2  0
  8 10  2  0
  8 11  1  0
M  END
>  <zinc_id>  (87) 
ZINC000001554588

>  <smiles>  (87) 
CC(=O)NCCCS(=O)(=O)O

$$$$

     RDKit          2D

 14 15  0  0  0  0  0  0  0  0999 V2000
   -1.2359    2.7617    0.0000 O   0  0  0  0  0  0  0  0  0  0  0  0
    0.0981    2.0757    0.0000 C   0  0  0  0  0  0  0  0  0  0  0  0
    1.3591    2.8880    0.0000 O   0  0  0  0  0  0  0  0  0  0  0  0
    0.1709    0.5775    0.0000 C   0  0  0  0  0  0  0  0  0  0  0  0
   -0.9983   -0.3621    0.0000 C   0  0  0  0  0  0  0  0  0  0  0  0
   -2.4457    0.0316    0.0000 C   0  0  0  0  0  0  0  0  0  0  0  0
   -3.5104   -1.0251    0.0000 C   0  0  0  0  0  0  0  0  0  0  0  0
   -4.9578   -0.6314    0.0000 O   0  0  0  0  0  0  0  0  0  0  0  0
   -0.4660   -1.7645    0.0000 O   0  0  0  0  0  0  0  0  0  0  0  0
    1.0322   -1.6916    0.0000 C   0  0  0  0  0  0  0  0  0  0  0  0
    2.4796   -2.0852    0.0000 C   0  0  0  0  0  0  0  0  0  0  0  0
    2.8733   -0.6378    0.0000 C   0  0  0  0  0  0  0  0  0  0  0  0
    4.1751    0.1073    0.0000 O   0  0  0  0  0  0  0  0  0  0  0  0
    1.4259   -0.2442    0.0000 N   0  0  0  0  0  0  0  0  0  0  0  0
  1  2  2  0
  2  3  1  0
  4  2  1  6
  4  5  1  0
  5  6  2  0
  6  7  1  0
  7  8  1  0
  5  9  1  0
  9 10  1  0
 10 11  1  1
 11 12  1  0
 12 13  2  0
 12 14  1  0
 14  4  1  0
 14 10  1  0
M  END
>  <zinc_id>  (88) 
ZINC000003830569

>  <smiles>  (88) 
O=C(O)[C@H]1/C(=C/CO)O[C@@H]2CC(=O)N21

$$$$

     RDKit          3D

 26 28  0  0  0  0  0  0  0  0999 V2000
    1.7387    1.0514    0.9242 O   0  0  0  0  0  0  0  0  0  0  0  0
    1.4920    0.1079    0.1294 C   0  0  0  0  0  0  0  0  0  0  0  0
    2.5960   -0.5452   -0.4625 N   0  0  0  0  0  0  0  0  0  0  0  0
    3.9513   -0.1972   -0.2108 C   0  0  0  0  0  0  0  0  0  0  0  0
    4.6335   -0.8041    0.8203 C   0  0  0  0  0  0  0  0  0  0  0  0
    3.7698   -1.9896    1.7744 Cl  0  0  0  0  0  0  0  0  0  0  0  0
    5.9670   -0.4812    1.0904 C   0  0  0  0  0  0  0  0  0  0  0  0
    6.5599    0.4422    0.3088 N   0  0  0  0  0  0  0  0  0  0  0  0
    5.8897    1.0378   -0.7035 C   0  0  0  0  0  0  0  0  0  0  0  0
    4.5854    0.7572   -1.0085 C   0  0  0  0  0  0  0  0  0  0  0  0
    3.7001    1.5128   -2.3096 Cl  0  0  0  0  0  0  0  0  0  0  0  0
    0.1077   -0.2546   -0.1337 C   0  0  0  0  0  0  0  0  0  0  0  0
   -0.2169   -1.2783   -0.9941 C   0  0  0  0  0  0  0  0  0  0  0  0
   -1.5418   -1.5805   -1.2079 C   0  0  0  0  0  0  0  0  0  0  0  0
   -2.5870   -0.9130   -0.6058 C   0  0  0  0  0  0  0  0  0  0  0  0
   -3.9216   -1.2351   -0.8362 O   0  0  0  0  0  0  0  0  0  0  0  0
   -4.1817   -2.2983   -1.7323 C   0  0  0  0  0  0  0  0  0  0  0  0
   -5.5149   -2.5402   -1.8946 F   0  0  0  0  0  0  0  0  0  0  0  0
   -3.4815   -3.4288   -1.3442 F   0  0  0  0  0  0  0  0  0  0  0  0
   -2.2515    0.1225    0.2643 C   0  0  0  0  0  0  0  0  0  0  0  0
   -3.2947    0.7874    0.8641 O   0  0  0  0  0  0  0  0  0  0  0  0
   -3.0424    1.8612    1.7695 C   0  0  0  0  0  0  0  0  0  0  0  0
   -4.3057    2.4475    2.3096 C   0  0  0  0  0  0  0  0  0  0  0  0
   -5.2365    3.0166    1.2786 C   0  0  0  0  0  0  0  0  0  0  0  0
   -4.4869    3.9829    2.1238 C   0  0  0  0  0  0  0  0  0  0  0  0
   -0.9281    0.4186    0.4729 C   0  0  0  0  0  0  0  0  0  0  0  0
  1  2  2  0
  2  3  1  0
  3  4  1  0
  4  5  2  0
  5  6  1  0
  5  7  1  0
  7  8  2  0
  8  9  1  0
  9 10  2  0
 10 11  1  0
  2 12  1  0
 12 13  2  0
 13 14  1  0
 14 15  2  0
 15 16  1  0
 16 17  1  0
 17 18  1  0
 17 19  1  0
 15 20  1  0
 20 21  1  0
 21 22  1  0
 22 23  1  0
 23 24  1  0
 24 25  1  0
 20 26  2  0
 10  4  1  0
 26 12  1  0
 25 23  1  0
M  END
>  <zinc_id>  (89) 
ZINC000000592419

>  <smiles>  (89) 
O=C(Nc1c(Cl)cncc1Cl)c1ccc(OC(F)F)c(OCC2CC2)c1

$$$$

     RDKit          3D

 31 33  0  0  0  0  0  0  0  0999 V2000
    1.4491    1.2912   -2.1137 C   0  0  0  0  0  0  0  0  0  0  0  0
    1.9519    1.8413   -0.9123 O   0  0  0  0  0  0  0  0  0  0  0  0
    2.8680    1.0876   -0.1651 C   0  0  0  0  0  0  0  0  0  0  0  0
    4.2260    1.1673   -0.5078 C   0  0  0  0  0  0  0  0  0  0  0  0
    4.5765    2.0500   -1.6478 C   0  0  0  0  0  0  0  0  0  0  0  0
    5.2075    0.4721    0.1621 C   0  0  0  0  0  0  0  0  0  0  0  0
    4.8772   -0.3473    1.2205 C   0  0  0  0  0  0  0  0  0  0  0  0
    3.5547   -0.4293    1.5604 C   0  0  0  0  0  0  0  0  0  0  0  0
    3.2192   -1.2560    2.6287 O   0  0  0  0  0  0  0  0  0  0  0  0
    2.5352    0.2805    0.8801 C   0  0  0  0  0  0  0  0  0  0  0  0
    1.1763    0.1043    1.3787 C   0  0  0  0  0  0  0  0  0  0  0  0
    0.3504   -0.8182    0.6106 C   0  0  0  0  0  0  0  0  0  0  0  0
   -0.8846   -0.5715    0.1349 C   0  0  0  0  0  0  0  0  0  0  0  0
   -1.4233    0.7760    0.4414 C   0  0  0  0  0  0  0  0  0  0  0  0
   -1.6515   -1.5761   -0.6186 C   0  0  0  0  0  0  0  0  0  0  0  0
   -2.0015   -1.2779   -2.0132 C   0  0  0  0  0  0  0  0  0  0  0  0
   -2.8271   -0.0741   -2.1544 C   0  0  0  0  0  0  0  0  0  0  0  0
   -2.3819    1.0609   -2.4183 O   0  0  0  0  0  0  0  0  0  0  0  0
   -4.2015   -0.1980   -1.9840 O   0  0  0  0  0  0  0  0  0  0  0  0
   -5.0745    0.9204   -2.1038 C   0  0  0  0  0  0  0  0  0  0  0  0
   -6.4819    0.4190   -1.8584 C   0  0  0  0  0  0  0  0  0  0  0  0
   -6.6126   -0.1640   -0.5353 N   0  0  0  0  0  0  0  0  0  0  0  0
   -5.8925   -1.3671   -0.3791 C   0  0  0  0  0  0  0  0  0  0  0  0
   -5.3653   -1.6445    0.9897 C   0  0  0  0  0  0  0  0  0  0  0  0
   -4.8621   -0.5292    1.6364 O   0  0  0  0  0  0  0  0  0  0  0  0
   -5.9165    0.3681    1.7662 C   0  0  0  0  0  0  0  0  0  0  0  0
   -6.4306    0.8407    0.4390 C   0  0  0  0  0  0  0  0  0  0  0  0
    6.0716   -0.9855    1.7813 C   0  0  0  0  0  0  0  0  0  0  0  0
    6.1348   -1.7943    2.7553 O   0  0  0  0  0  0  0  0  0  0  0  0
    7.1238   -0.5126    1.0140 O   0  0  0  0  0  0  0  0  0  0  0  0
    6.6853    0.3754    0.0125 C   0  0  0  0  0  0  0  0  0  0  0  0
  1  2  1  0
  2  3  1  0
  3  4  2  0
  4  5  1  0
  4  6  1  0
  6  7  2  0
  7  8  1  0
  8  9  1  0
  8 10  2  0
 10 11  1  0
 11 12  1  0
 12 13  2  0
 13 14  1  0
 13 15  1  0
 15 16  1  0
 16 17  1  0
 17 18  2  0
 17 19  1  0
 19 20  1  0
 20 21  1  0
 21 22  1  0
 22 23  1  0
 23 24  1  0
 24 25  1  0
 25 26  1  0
 26 27  1  0
  7 28  1  0
 28 29  2  0
 28 30  1  0
 30 31  1  0
 10  3  1  0
 27 22  1  0
 31  6  1  0
M  END
>  <zinc_id>  (90) 
ZINC000021297660

>  <smiles>  (90) 
COc1c(C)c2c(c(O)c1C/C=C(\C)CCC(=O)OCCN1CCOCC1)C(=O)OC2

$$$$

     RDKit          3D

 16 17  0  0  0  0  0  0  0  0999 V2000
   -2.3935    3.0910   -0.4802 N   0  0  0  0  0  0  0  0  0  0  0  0
   -2.1089    1.7453   -0.1165 C   0  0  0  0  0  0  0  0  0  0  0  0
   -0.8620    1.2839    0.0890 N   0  0  0  0  0  0  0  0  0  0  0  0
   -0.6158    0.0127    0.4309 C   0  0  0  0  0  0  0  0  0  0  0  0
   -1.6561   -0.8830    0.5865 C   0  0  0  0  0  0  0  0  0  0  0  0
   -1.1519   -2.0929    0.9310 N   0  0  0  0  0  0  0  0  0  0  0  0
    0.1827   -1.9390    0.9855 C   0  0  0  0  0  0  0  0  0  0  0  0
    0.5214   -0.6781    0.6873 N   0  0  0  0  0  0  0  0  0  0  0  0
    1.8293   -0.0564    0.6205 C   0  0  0  0  0  0  0  0  0  0  0  0
    2.3463   -0.1703   -0.6465 O   0  0  0  0  0  0  0  0  0  0  0  0
    3.5988    0.4357   -0.6737 C   0  0  0  0  0  0  0  0  0  0  0  0
    4.4930   -0.2684    0.3255 C   0  0  0  0  0  0  0  0  0  0  0  0
    5.7632    0.2842    0.3534 O   0  0  0  0  0  0  0  0  0  0  0  0
   -2.9419   -0.4076    0.3747 C   0  0  0  0  0  0  0  0  0  0  0  0
   -3.8854   -1.2276    0.5178 O   0  0  0  0  0  0  0  0  0  0  0  0
   -3.1192    0.8706    0.0358 N   0  0  0  0  0  0  0  0  0  0  0  0
  1  2  1  0
  2  3  2  0
  3  4  1  0
  4  5  2  0
  5  6  1  0
  6  7  2  0
  7  8  1  0
  8  9  1  0
  9 10  1  0
 10 11  1  0
 11 12  1  0
 12 13  1  0
  5 14  1  0
 14 15  2  0
 14 16  1  0
 16  2  1  0
  8  4  1  0
M  END
>  <zinc_id>  (91) 
ZINC000001530555

>  <smiles>  (91) 
Nc1nc2c(ncn2COCCO)c(=O)[nH]1

$$$$

     RDKit          3D

 12 12  0  0  0  0  0  0  0  0999 V2000
   -2.2294   -1.9845    0.5792 Cl  0  0  0  0  0  0  0  0  0  0  0  0
   -0.8900   -0.7696    0.9000 C   0  0  1  0  0  0  0  0  0  0  0  0
    0.1828   -1.2769   -0.1708 C   0  0  2  0  0  0  0  0  0  0  0  0
    0.6107   -2.8723    0.6452 Cl  0  0  0  0  0  0  0  0  0  0  0  0
    1.4459   -0.4411    0.3805 C   0  0  1  0  0  0  0  0  0  0  0  0
    2.1049   -0.0254   -1.3124 Cl  0  0  0  0  0  0  0  0  0  0  0  0
    0.8007    0.9814    0.7755 C   0  0  1  0  0  0  0  0  0  0  0  0
    2.1817    2.1006    0.3073 Cl  0  0  0  0  0  0  0  0  0  0  0  0
   -0.1380    1.1791   -0.5042 C   0  0  2  0  0  0  0  0  0  0  0  0
   -0.6189    2.9280   -0.1783 Cl  0  0  0  0  0  0  0  0  0  0  0  0
   -1.4733    0.4992    0.0889 C   0  0  1  0  0  0  0  0  0  0  0  0
   -1.9773   -0.3184   -1.5110 Cl  0  0  0  0  0  0  0  0  0  0  0  0
  2  1  1  6
  2  3  1  0
  3  4  1  1
  3  5  1  0
  5  6  1  6
  5  7  1  0
  7  8  1  6
  7  9  1  0
  9 10  1  1
  9 11  1  0
 11 12  1  6
 11  2  1  0
M  END
>  <zinc_id>  (92) 
ZINC000100024116

>  <smiles>  (92) 
Cl[C@H]1[C@H](Cl)[C@@H](Cl)[C@@H](Cl)[C@H](Cl)[C@H]1Cl

$$$$

     RDKit          3D

 16 17  0  0  0  0  0  0  0  0999 V2000
    0.8930   -2.2109   -1.2675 C   0  0  0  0  0  0  0  0  0  0  0  0
   -0.1764   -1.3455   -0.7046 C   0  0  0  0  0  0  0  0  0  0  0  0
   -1.4681   -1.7222   -0.7151 N   0  0  0  0  0  0  0  0  0  0  0  0
   -2.4401   -0.9349   -0.2031 C   0  0  0  0  0  0  0  0  0  0  0  0
   -3.6605   -1.3061   -0.2204 O   0  0  0  0  0  0  0  0  0  0  0  0
   -2.1832    0.2992    0.3618 C   0  0  0  0  0  0  0  0  0  0  0  0
   -3.2426    1.1076    0.8956 C   0  0  0  0  0  0  0  0  0  0  0  0
   -4.1040    1.7830    1.3201 N   0  0  0  0  0  0  0  0  0  0  0  0
   -0.8599    0.7064    0.3828 C   0  0  0  0  0  0  0  0  0  0  0  0
    0.1218   -0.1148   -0.1469 C   0  0  0  0  0  0  0  0  0  0  0  0
    1.5368    0.2674   -0.1502 C   0  0  0  0  0  0  0  0  0  0  0  0
    1.8868    1.5462   -0.5293 C   0  0  0  0  0  0  0  0  0  0  0  0
    3.2344    1.8906   -0.5262 C   0  0  0  0  0  0  0  0  0  0  0  0
    4.1333    0.9630   -0.1544 N   0  0  0  0  0  0  0  0  0  0  0  0
    3.8310   -0.2790    0.2170 C   0  0  0  0  0  0  0  0  0  0  0  0
    2.4976   -0.6501    0.2236 C   0  0  0  0  0  0  0  0  0  0  0  0
  1  2  1  0
  2  3  1  0
  3  4  1  0
  4  5  2  0
  4  6  1  0
  6  7  1  0
  7  8  3  0
  6  9  2  0
  9 10  1  0
 10 11  1  0
 11 12  2  0
 12 13  1  0
 13 14  2  0
 14 15  1  0
 15 16  2  0
 10  2  2  0
 16 11  1  0
M  END
>  <zinc_id>  (93) 
ZINC000009224016

>  <smiles>  (93) 
Cc1[nH]c(=O)c(C#N)cc1-c1ccncc1

$$$$

     RDKit          3D

 30 31  0  0  0  0  0  0  0  0999 V2000
    6.5905   -2.8084   -0.6863 C   0  0  0  0  0  0  0  0  0  0  0  0
    5.9291   -1.9009   -1.3945 O   0  0  0  0  0  0  0  0  0  0  0  0
    4.8937   -1.3918   -0.6435 C   0  0  0  0  0  0  0  0  0  0  0  0
    3.8999   -2.4799   -0.2190 C   0  0  0  0  0  0  0  0  0  0  0  0
    2.9025   -1.8124    0.5377 O   0  0  0  0  0  0  0  0  0  0  0  0
    2.1423   -0.8032   -0.0182 C   0  0  0  0  0  0  0  0  0  0  0  0
    2.3870   -0.5208   -1.2136 O   0  0  0  0  0  0  0  0  0  0  0  0
    1.0825   -0.0901    0.7771 C   0  0  0  0  0  0  0  0  0  0  0  0
    0.8853   -0.4118    1.9923 C   0  0  0  0  0  0  0  0  0  0  0  0
    1.7619   -1.5294    2.5368 C   0  0  0  0  0  0  0  0  0  0  0  0
   -0.0310    0.2742    2.8255 N   0  0  0  0  0  0  0  0  0  0  0  0
   -0.7203    1.3518    2.2203 C   0  0  0  0  0  0  0  0  0  0  0  0
   -1.7216    2.1759    3.0137 C   0  0  0  0  0  0  0  0  0  0  0  0
   -0.5569    1.7008    0.9991 C   0  0  0  0  0  0  0  0  0  0  0  0
   -1.2858    2.8501    0.4008 C   0  0  0  0  0  0  0  0  0  0  0  0
   -1.1535    3.2476   -0.7622 O   0  0  0  0  0  0  0  0  0  0  0  0
   -2.1845    3.5270    1.2164 O   0  0  0  0  0  0  0  0  0  0  0  0
   -2.9298    4.6369    0.7417 C   0  0  0  0  0  0  0  0  0  0  0  0
   -3.8291    5.1914    1.8148 C   0  0  0  0  0  0  0  0  0  0  0  0
   -3.7447    4.3126   -0.4682 C   0  0  0  0  0  0  0  0  0  0  0  0
    0.2859    0.9532   -0.0702 C   0  0  2  0  0  0  0  0  0  0  0  0
   -0.8443   -0.0324   -0.6184 C   0  0  0  0  0  0  0  0  0  0  0  0
   -2.0912    0.4585   -0.6848 C   0  0  0  0  0  0  0  0  0  0  0  0
   -3.1594   -0.3227   -1.1483 C   0  0  0  0  0  0  0  0  0  0  0  0
   -2.8424   -1.5999   -1.5213 C   0  0  0  0  0  0  0  0  0  0  0  0
   -1.5560   -2.0964   -1.4494 C   0  0  0  0  0  0  0  0  0  0  0  0
   -1.3042   -3.4474   -1.8594 N   0  0  0  0  0  0  0  0  0  0  0  0
   -2.2213   -4.1481   -2.2675 O   0  0  0  0  0  0  0  0  0  0  0  0
   -0.0471   -3.9993   -1.8117 O   0  0  0  0  0  0  0  0  0  0  0  0
   -0.5372   -1.2853   -0.9850 C   0  0  0  0  0  0  0  0  0  0  0  0
  1  2  1  0
  2  3  1  0
  3  4  1  0
  4  5  1  0
  5  6  1  0
  6  7  2  0
  6  8  1  0
  8  9  2  0
  9 10  1  0
  9 11  1  0
 11 12  1  0
 12 13  1  0
 12 14  2  0
 14 15  1  0
 15 16  2  0
 15 17  1  0
 17 18  1  0
 18 19  1  0
 18 20  1  0
 14 21  1  0
 21 22  1  6
 22 23  2  0
 23 24  1  0
 24 25  2  0
 25 26  1  0
 26 27  1  0
 27 28  2  0
 27 29  1  0
 26 30  2  0
 21  8  1  0
 30 22  1  0
M  CHG  2  27   1  29  -1
M  END
>  <zinc_id>  (94) 
ZINC000019632713

>  <smiles>  (94) 
COCCOC(=O)C1=C(C)NC(C)=C(C(=O)OC(C)C)[C@@H]1c1cccc([N+](=O)[O-])c1

$$$$

     RDKit          3D

 50 53  0  0  0  0  0  0  0  0999 V2000
   11.2334    1.8531    0.7423 C   0  0  0  0  0  0  0  0  0  0  0  0
   10.9792    1.4204    0.6039 C   0  0  0  0  0  0  0  0  0  0  0  0
   11.4772   -0.0318    0.8286 C   0  0  0  0  0  0  0  0  0  0  0  0
    9.6522    1.2675   -0.1142 C   0  0  0  0  0  0  0  0  0  0  0  0
    8.9059    0.1923   -0.2141 N   0  0  0  0  0  0  0  0  0  0  0  0
    7.7931    0.2295   -0.8715 C   0  0  0  0  0  0  0  0  0  0  0  0
    6.9256   -1.0114   -1.0047 C   0  0  0  0  0  0  0  0  0  0  0  0
    6.0587   -0.9786    0.1449 N   0  0  0  0  0  0  0  0  0  0  0  0
    6.3409   -1.6056    1.3968 C   0  0  0  0  0  0  0  0  0  0  0  0
    4.8317   -0.2594   -0.0130 C   0  0  0  0  0  0  0  0  0  0  0  0
    4.5445    0.3269   -1.1133 O   0  0  0  0  0  0  0  0  0  0  0  0
    3.9209   -0.1750    1.0217 N   0  0  0  0  0  0  0  0  0  0  0  0
    2.5992    0.5603    0.9698 C   0  0  2  0  0  0  0  0  0  0  0  0
    1.7624   -0.2899    0.0192 C   0  0  0  0  0  0  0  0  0  0  0  0
    2.3056   -1.2701   -0.4214 O   0  0  0  0  0  0  0  0  0  0  0  0
    0.4764    0.0391   -0.3121 N   0  0  0  0  0  0  0  0  0  0  0  0
   -0.2943   -0.9099   -1.3089 C   0  0  1  0  0  0  0  0  0  0  0  0
   -0.4854   -2.1291   -0.3787 C   0  0  0  0  0  0  0  0  0  0  0  0
   -1.0645   -3.3266   -0.9940 C   0  0  0  0  0  0  0  0  0  0  0  0
   -0.1214   -4.2150   -1.5186 C   0  0  0  0  0  0  0  0  0  0  0  0
   -0.3278   -5.3941   -2.1412 C   0  0  0  0  0  0  0  0  0  0  0  0
   -1.6422   -5.8388   -2.3143 C   0  0  0  0  0  0  0  0  0  0  0  0
   -2.6240   -5.0184   -1.8257 C   0  0  0  0  0  0  0  0  0  0  0  0
   -2.3004   -3.8260   -1.2010 C   0  0  0  0  0  0  0  0  0  0  0  0
   -1.5675    0.0392   -1.2090 C   0  0  0  0  0  0  0  0  0  0  0  0
   -2.0332    0.2397    0.2533 C   0  0  2  0  0  0  0  0  0  0  0  0
   -2.4035   -1.0348    0.6319 O   0  0  0  0  0  0  0  0  0  0  0  0
   -3.2067    1.2621    0.1119 C   0  0  2  0  0  0  0  0  0  0  0  0
   -4.0389    1.2169    1.3780 C   0  0  0  0  0  0  0  0  0  0  0  0
   -4.7305    0.1027    1.8828 C   0  0  0  0  0  0  0  0  0  0  0  0
   -4.2288   -0.7287    2.8498 C   0  0  0  0  0  0  0  0  0  0  0  0
   -4.9162   -1.8124    3.3538 C   0  0  0  0  0  0  0  0  0  0  0  0
   -6.1760   -2.1325    2.9053 C   0  0  0  0  0  0  0  0  0  0  0  0
   -6.7108   -1.3200    1.9341 C   0  0  0  0  0  0  0  0  0  0  0  0
   -6.0083   -0.2528    1.4537 C   0  0  0  0  0  0  0  0  0  0  0  0
   -4.2090    0.7212   -0.9027 N   0  0  0  0  0  0  0  0  0  0  0  0
   -5.1231    1.5703   -1.4972 C   0  0  0  0  0  0  0  0  0  0  0  0
   -5.0946    2.7853   -1.1796 O   0  0  0  0  0  0  0  0  0  0  0  0
   -6.0302    1.0624   -2.4094 O   0  0  0  0  0  0  0  0  0  0  0  0
   -6.9587    1.9606   -3.0080 C   0  0  0  0  0  0  0  0  0  0  0  0
   -7.7896    2.6111   -1.9297 C   0  0  0  0  0  0  0  0  0  0  0  0
   -8.2003    2.1396   -0.7314 C   0  0  0  0  0  0  0  0  0  0  0  0
   -8.9016    2.9073    0.0320 N   0  0  0  0  0  0  0  0  0  0  0  0
   -9.2055    4.1222   -0.3602 C   0  0  0  0  0  0  0  0  0  0  0  0
   -8.4560    4.2071   -1.9141 S   0  0  0  0  0  0  0  0  0  0  0  0
    3.0671    1.7213   -0.0676 C   0  0  0  0  0  0  0  0  0  0  0  0
    1.8435    2.5978   -0.2765 C   0  0  0  0  0  0  0  0  0  0  0  0
    3.9423    2.5608    0.8920 C   0  0  0  0  0  0  0  0  0  0  0  0
    7.4288    1.4204   -1.4515 C   0  0  0  0  0  0  0  0  0  0  0  0
    8.7606    2.4237   -0.9888 S   0  0  0  0  0  0  0  0  0  0  0  0
  1  2  1  0
  2  3  1  0
  2  4  1  0
  4  5  2  0
  5  6  1  0
  6  7  1  0
  7  8  1  0
  8  9  1  0
  8 10  1  0
 10 11  2  0
 10 12  1  0
 13 12  1  6
 13 14  1  0
 14 15  2  0
 14 16  1  0
 16 17  1  0
 17 18  1  1
 18 19  1  0
 19 20  2  0
 20 21  1  0
 21 22  2  0
 22 23  1  0
 23 24  2  0
 17 25  1  0
 25 26  1  0
 26 27  1  6
 26 28  1  0
 28 29  1  1
 29 30  1  0
 30 31  2  0
 31 32  1  0
 32 33  2  0
 33 34  1  0
 34 35  2  0
 28 36  1  0
 36 37  1  0
 37 38  2  0
 37 39  1  0
 39 40  1  0
 40 41  1  0
 41 42  2  0
 42 43  1  0
 43 44  2  0
 44 45  1  0
 13 46  1  0
 46 47  1  0
 46 48  1  0
  6 49  2  0
 49 50  1  0
 50  4  1  0
 24 19  1  0
 35 30  1  0
 45 41  1  0
M  END
>  <zinc_id>  (95) 
ZINC000003944422

>  <smiles>  (95) 
CC(C)c1nc(CN(C)C(=O)N[C@H](C(=O)N[C@@H](Cc2ccccc2)C[C@H](O)[C@H](Cc2ccccc2)NC(=O)OCc2cncs2)C(C)C)cs1

$$$$

     RDKit          3D

 11 11  0  0  0  0  0  0  0  0999 V2000
   -1.7940    1.3951    0.8396 C   0  0  0  0  0  0  0  0  0  0  0  0
   -2.0127    0.1414    0.0051 C   0  0  0  0  0  0  0  0  0  0  0  0
   -3.3481    0.3227   -0.6910 C   0  0  0  0  0  0  0  0  0  0  0  0
   -2.0816   -1.0263    0.8811 N   0  0  0  0  0  0  0  0  0  0  0  0
   -0.9679   -0.0177   -1.0611 C   0  0  0  0  0  0  0  0  0  0  0  0
    0.4046   -0.1182   -0.5094 C   0  0  0  0  0  0  0  0  0  0  0  0
    0.9884   -1.3110   -0.1673 C   0  0  0  0  0  0  0  0  0  0  0  0
    2.2687   -1.3066    0.3381 C   0  0  0  0  0  0  0  0  0  0  0  0
    3.0113   -0.1580    0.5243 C   0  0  0  0  0  0  0  0  0  0  0  0
    2.4028    1.0428    0.1717 C   0  0  0  0  0  0  0  0  0  0  0  0
    1.1286    1.0358   -0.3311 C   0  0  0  0  0  0  0  0  0  0  0  0
  1  2  1  0
  2  3  1  0
  2  4  1  0
  2  5  1  0
  5  6  1  0
  6  7  2  0
  7  8  1  0
  8  9  2  0
  9 10  1  0
 10 11  2  0
 11  6  1  0
M  END
>  <zinc_id>  (96) 
ZINC000008403947

>  <smiles>  (96) 
CC(C)(N)Cc1ccccc1

$$$$

     RDKit          3D

 43 50  0  0  0  0  0  0  0  0999 V2000
    5.0139   -0.0695    2.4451 C   0  0  0  0  0  0  0  0  0  0  0  0
    4.0641    0.5277    2.2637 N   0  0  0  0  0  0  0  0  0  0  0  0
    3.2445    1.0490    3.1998 C   0  0  0  0  0  0  0  0  0  0  0  0
    1.9332    1.8134    2.6918 C   0  0  2  0  0  0  0  0  0  0  0  0
    0.8654    0.6641    2.6977 C   0  0  0  0  0  0  0  0  0  0  0  0
    1.1186   -0.4390    3.1687 O   0  0  0  0  0  0  0  0  0  0  0  0
   -0.4115    0.8813    2.1609 N   0  0  0  0  0  0  0  0  0  0  0  0
   -1.4145   -0.1887    2.1657 C   0  0  2  0  0  0  0  0  0  0  0  0
   -1.6998   -0.6229    3.6078 C   0  0  0  0  0  0  0  0  0  0  0  0
   -0.9931   -1.2587    1.4015 O   0  0  0  0  0  0  0  0  0  0  0  0
   -1.9515   -1.6788    0.5473 C   0  0  1  0  0  0  0  0  0  0  0  0
   -1.4942   -2.0730   -0.6797 O   0  0  0  0  0  0  0  0  0  0  0  0
   -2.7130   -2.9664    1.2417 C   0  0  2  0  0  0  0  0  0  0  0  0
   -1.5935   -4.0626    0.7142 C   0  0  0  0  0  0  0  0  0  0  0  0
   -2.5570   -5.2243    0.6393 C   0  0  0  0  0  0  0  0  0  0  0  0
   -3.9091   -4.6867    0.2909 C   0  0  0  0  0  0  0  0  0  0  0  0
   -3.6793   -3.2538    0.0592 N   0  0  0  0  0  0  0  0  0  0  0  0
   -4.0640   -2.2985   -0.8203 C   0  0  0  0  0  0  0  0  0  0  0  0
   -4.4410   -2.6142   -1.9768 O   0  0  0  0  0  0  0  0  0  0  0  0
   -4.0869   -0.7338   -0.5150 C   0  0  2  0  0  0  0  0  0  0  0  0
   -3.1295   -0.3721   -1.8175 C   0  0  0  0  0  0  0  0  0  0  0  0
   -2.9717    1.1135   -1.8051 C   0  0  0  0  0  0  0  0  0  0  0  0
   -3.9147    1.9314   -2.4248 C   0  0  0  0  0  0  0  0  0  0  0  0
   -3.7993    3.2941   -2.4579 C   0  0  0  0  0  0  0  0  0  0  0  0
   -2.7288    3.9338   -1.8711 C   0  0  0  0  0  0  0  0  0  0  0  0
   -1.8061    3.1119   -1.2631 C   0  0  0  0  0  0  0  0  0  0  0  0
   -1.9023    1.7445   -1.2183 C   0  0  0  0  0  0  0  0  0  0  0  0
   -2.9663   -0.6753    0.5228 N   0  0  0  0  0  0  0  0  0  0  0  0
   -2.6857    0.1944    1.5797 C   0  0  0  0  0  0  0  0  0  0  0  0
   -3.3658    1.1648    2.0121 O   0  0  0  0  0  0  0  0  0  0  0  0
    2.2434    2.0053    1.2093 C   0  0  0  0  0  0  0  0  0  0  0  0
    2.8182    1.2504    0.3784 C   0  0  0  0  0  0  0  0  0  0  0  0
    3.0762    1.4876   -0.9983 C   0  0  0  0  0  0  0  0  0  0  0  0
    2.3591    2.4941   -1.6414 C   0  0  0  0  0  0  0  0  0  0  0  0
    2.6268    2.6712   -3.0129 C   0  0  0  0  0  0  0  0  0  0  0  0
    3.5531    1.8887   -3.6915 C   0  0  0  0  0  0  0  0  0  0  0  0
    4.2505    0.9002   -3.0356 C   0  0  0  0  0  0  0  0  0  0  0  0
    5.1794   -0.0374   -3.2628 N   0  0  0  0  0  0  0  0  0  0  0  0
    5.4640   -0.7372   -2.1194 C   0  0  0  0  0  0  0  0  0  0  0  0
    4.6655   -0.2147   -1.0906 C   0  0  0  0  0  0  0  0  0  0  0  0
    3.9572    0.7585   -1.6835 C   0  0  0  0  0  0  0  0  0  0  0  0
    4.5873   -0.5520    0.2372 C   0  0  0  0  0  0  0  0  0  0  0  0
    3.2582   -0.1205    1.0528 C   0  0  1  0  0  0  0  0  0  0  0  0
  1  2  1  0
  2  3  1  0
  3  4  1  0
  4  5  1  6
  5  6  2  0
  5  7  1  0
  7  8  1  0
  8  9  1  1
  8 10  1  0
 10 11  1  0
 11 12  1  6
 11 13  1  0
 13 14  1  6
 14 15  1  0
 15 16  1  0
 16 17  1  0
 17 18  1  0
 18 19  2  0
 18 20  1  0
 20 21  1  6
 21 22  1  0
 22 23  2  0
 23 24  1  0
 24 25  2  0
 25 26  1  0
 26 27  2  0
 20 28  1  0
 28 29  1  0
 29 30  2  0
  4 31  1  0
 31 32  2  0
 32 33  1  0
 33 34  2  0
 34 35  1  0
 35 36  2  0
 36 37  1  0
 37 38  1  0
 38 39  1  0
 39 40  2  0
 40 41  1  0
 40 42  1  0
 43 42  1  6
 43  2  1  0
 29  8  1  0
 43 32  1  0
 28 11  1  0
 41 33  1  0
 17 13  1  0
 27 22  1  0
 41 37  2  0
M  END
>  <zinc_id>  (97) 
ZINC000052955754

>  <smiles>  (97) 
CN1C[C@H](C(=O)N[C@]2(C)O[C@@]3(O)[C@@H]4CCCN4C(=O)[C@H](Cc4ccccc4)N3C2=O)C=C2c3cccc4[nH]cc(c34)C[C@H]21

$$$$

     RDKit          3D

 23 26  0  0  0  0  0  0  0  0999 V2000
    4.5894    0.9062   -1.9383 C   0  0  0  0  0  0  0  0  0  0  0  0
    4.1617    0.8906   -0.8269 C   0  0  0  0  0  0  0  0  0  0  0  0
    3.6235    0.8960    0.5572 C   0  0  2  0  0  0  0  0  0  0  0  0
    4.2324    1.8394    1.3415 O   0  0  0  0  0  0  0  0  0  0  0  0
    3.8634   -0.5335    1.0791 C   0  0  0  0  0  0  0  0  0  0  0  0
    2.7061   -1.3696    0.5684 C   0  0  0  0  0  0  0  0  0  0  0  0
    2.0591   -0.3563   -0.5331 C   0  0  1  0  0  0  0  0  0  0  0  0
    0.4521   -0.7375   -0.0686 C   0  0  2  0  0  0  0  0  0  0  0  0
    0.3507   -1.8576   -1.2357 C   0  0  0  0  0  0  0  0  0  0  0  0
   -1.0606   -2.0686   -1.5929 C   0  0  0  0  0  0  0  0  0  0  0  0
   -2.0233   -1.1419   -1.0162 C   0  0  0  0  0  0  0  0  0  0  0  0
   -3.3431   -1.5402   -0.7578 C   0  0  0  0  0  0  0  0  0  0  0  0
   -4.2738   -0.6792   -0.2154 C   0  0  0  0  0  0  0  0  0  0  0  0
   -5.5923   -1.1047    0.0340 O   0  0  0  0  0  0  0  0  0  0  0  0
   -6.5679   -0.2751    0.5796 C   0  0  0  0  0  0  0  0  0  0  0  0
   -3.8872    0.6150    0.0803 C   0  0  0  0  0  0  0  0  0  0  0  0
   -2.5620    1.0247   -0.1759 C   0  0  0  0  0  0  0  0  0  0  0  0
   -1.6851    0.1343   -0.7119 C   0  0  0  0  0  0  0  0  0  0  0  0
   -0.2047    0.4917   -1.0394 C   0  0  1  0  0  0  0  0  0  0  0  0
   -0.0531    1.6260    0.1291 C   0  0  0  0  0  0  0  0  0  0  0  0
    1.4114    2.0006   -0.0291 C   0  0  0  0  0  0  0  0  0  0  0  0
    2.1541    0.8872    0.5454 C   0  0  2  0  0  0  0  0  0  0  0  0
    1.6492    0.3525    1.8549 C   0  0  0  0  0  0  0  0  0  0  0  0
  1  2  3  0
  2  3  1  0
  3  4  1  1
  3  5  1  0
  5  6  1  0
  7  6  1  1
  7  8  1  0
  8  9  1  6
  9 10  1  0
 10 11  1  0
 11 12  2  0
 12 13  1  0
 13 14  1  0
 14 15  1  0
 13 16  2  0
 16 17  1  0
 17 18  2  0
 18 19  1  0
 19 20  1  1
 20 21  1  0
 21 22  1  0
 22 23  1  1
 22  3  1  0
 22  7  1  0
 19  8  1  0
 18 11  1  0
M  END
>  <zinc_id>  (98) 
ZINC000003815424

>  <smiles>  (98) 
C#C[C@]1(O)CC[C@H]2[C@@H]3CCc4cc(OC)ccc4[C@H]3CC[C@@]21C

$$$$

     RDKit          3D

 41 46  0  0  0  0  0  0  0  0999 V2000
   -3.7224    3.5506    0.4240 C   0  0  0  0  0  0  0  0  0  0  0  0
   -3.7355    2.3372    1.2097 C   0  0  0  0  0  0  0  0  0  0  0  0
   -3.7040    2.3883    2.4346 O   0  0  0  0  0  0  0  0  0  0  0  0
   -3.7995    1.2048    0.5416 O   0  0  0  0  0  0  0  0  0  0  0  0
   -3.8158   -0.2041    1.1381 C   0  0  1  0  0  0  0  0  0  0  0  0
   -4.1704   -0.9271   -0.3591 C   0  0  1  0  0  0  0  0  0  0  0  0
   -5.5528   -0.2555   -0.4836 N   0  0  0  0  0  0  0  0  0  0  0  0
   -6.0995    0.0699    0.8031 C   0  0  0  0  0  0  0  0  0  0  0  0
   -5.5523    0.7276   -1.4562 C   0  0  0  0  0  0  0  0  0  0  0  0
   -6.9083    1.0524   -1.9413 C   0  0  0  0  0  0  0  0  0  0  0  0
   -7.9464    0.0014   -1.6848 C   0  0  0  0  0  0  0  0  0  0  0  0
   -7.2845   -1.3520   -1.8614 C   0  0  0  0  0  0  0  0  0  0  0  0
   -6.2960   -1.4967   -0.7862 C   0  0  0  0  0  0  0  0  0  0  0  0
   -3.2144    0.0662   -1.2200 C   0  0  0  0  0  0  0  0  0  0  0  0
   -2.0230   -0.7942   -0.5776 C   0  0  1  0  0  0  0  0  0  0  0  0
   -0.7116    0.2120   -0.7200 C   0  0  2  0  0  0  0  0  0  0  0  0
   -0.4032    0.0584   -2.2962 C   0  0  0  0  0  0  0  0  0  0  0  0
    0.9110    0.8337   -2.2851 C   0  0  0  0  0  0  0  0  0  0  0  0
    2.0575   -0.2652   -1.8258 C   0  0  1  0  0  0  0  0  0  0  0  0
    3.1762    0.8235   -1.7551 C   0  0  0  0  0  0  0  0  0  0  0  0
    3.8383    0.7723   -0.2106 C   0  0  2  0  0  0  0  0  0  0  0  0
    5.1629    1.2256   -0.8565 O   0  0  0  0  0  0  0  0  0  0  0  0
    5.4298    2.4853   -0.4399 C   0  0  0  0  0  0  0  0  0  0  0  0
    6.6578    3.2790   -0.8054 C   0  0  0  0  0  0  0  0  0  0  0  0
    4.6769    3.2055    0.3542 O   0  0  0  0  0  0  0  0  0  0  0  0
    4.0562   -0.9190   -0.4157 C   0  0  1  0  0  0  0  0  0  0  0  0
    4.8441   -1.1920    0.8556 N   0  0  0  0  0  0  0  0  0  0  0  0
    4.4130   -0.4205    1.9371 C   0  0  0  0  0  0  0  0  0  0  0  0
    4.4464   -2.6002    1.1320 C   0  0  0  0  0  0  0  0  0  0  0  0
    5.0574   -3.0276    2.4217 C   0  0  0  0  0  0  0  0  0  0  0  0
    6.5765   -2.9306    2.3397 C   0  0  0  0  0  0  0  0  0  0  0  0
    6.8951   -2.5326    0.8975 C   0  0  0  0  0  0  0  0  0  0  0  0
    6.2405   -1.2263    0.5262 C   0  0  0  0  0  0  0  0  0  0  0  0
    2.6079   -1.2213    0.2966 C   0  0  0  0  0  0  0  0  0  0  0  0
    1.6071   -0.2934   -0.2727 C   0  0  1  0  0  0  0  0  0  0  0  0
    1.5080    1.0583    0.1846 C   0  0  0  0  0  0  0  0  0  0  0  0
    0.2376   -1.1226   -0.3556 C   0  0  1  0  0  0  0  0  0  0  0  0
   -0.0649   -1.2355    1.2040 C   0  0  0  0  0  0  0  0  0  0  0  0
   -1.5577   -1.6388    1.4177 C   0  0  0  0  0  0  0  0  0  0  0  0
   -2.2065   -0.4129    0.9512 C   0  0  2  0  0  0  0  0  0  0  0  0
   -1.6314    0.7162    1.5397 C   0  0  0  0  0  0  0  0  0  0  0  0
  1  2  1  0
  2  3  2  0
  2  4  1  0
  5  4  1  6
  5  6  1  0
  6  7  1  6
  7  8  1  0
  7  9  1  0
  9 10  1  0
 10 11  1  0
 11 12  1  0
 12 13  1  0
  6 14  1  0
 15 14  1  6
 15 16  1  0
 16 17  1  6
 17 18  1  0
 19 18  1  6
 19 20  1  0
 20 21  1  0
 21 22  1  6
 22 23  1  0
 23 24  1  0
 23 25  2  0
 21 26  1  0
 26 27  1  1
 27 28  1  0
 27 29  1  0
 29 30  1  0
 30 31  1  0
 31 32  1  0
 32 33  1  0
 26 34  1  0
 34 35  1  0
 35 36  1  1
 35 37  1  0
 37 38  1  1
 38 39  1  0
 39 40  1  0
 40 41  1  6
 40  5  1  0
 13  7  1  0
 40 15  1  0
 37 16  1  0
 35 19  1  0
 33 27  1  0
M  CHG  2   7   1  27   1
M  END
>  <zinc_id>  (99) 
ZINC000004097383

>  <smiles>  (99) 
CC(=O)O[C@H]1C[C@@H]2CC[C@@H]3[C@H](CC[C@@]4(C)[C@H]3C[C@H]([N+]3(C)CCCCC3)[C@@H]4OC(C)=O)[C@@]2(C)C[C@@H]1[N+]1(C)CCCCC1

$$$$

     RDKit          3D

 19 21  0  0  0  0  0  0  0  0999 V2000
    5.4017    0.6239   -0.9516 C   0  0  0  0  0  0  0  0  0  0  0  0
    4.9792    0.5865   -0.7354 C   0  0  0  0  0  0  0  0  0  0  0  0
    3.7540    0.3248    0.0886 C   0  0  0  0  0  0  0  0  0  0  0  0
    3.8101   -0.4559    1.0687 O   0  0  0  0  0  0  0  0  0  0  0  0
    2.5036    0.9265   -0.1860 N   0  0  0  0  0  0  0  0  0  0  0  0
    1.3886    0.6154    0.6574 C   0  0  0  0  0  0  0  0  0  0  0  0
    1.0467   -0.8584    0.6648 C   0  0  0  0  0  0  0  0  0  0  0  0
   -0.2274   -0.8612    1.6928 C   0  0  2  0  0  0  0  0  0  0  0  0
   -0.4668   -2.4731    1.5922 C   0  0  0  0  0  0  0  0  0  0  0  0
   -0.5240   -2.6752    0.1002 C   0  0  0  0  0  0  0  0  0  0  0  0
   -1.3938   -1.5497   -0.2704 C   0  0  0  0  0  0  0  0  0  0  0  0
   -2.2693   -1.4487   -1.3332 C   0  0  0  0  0  0  0  0  0  0  0  0
   -3.0272   -0.2920   -1.5315 C   0  0  0  0  0  0  0  0  0  0  0  0
   -2.8827    0.7550   -0.6383 C   0  0  0  0  0  0  0  0  0  0  0  0
   -2.0082    0.6777    0.4390 C   0  0  0  0  0  0  0  0  0  0  0  0
   -1.2955   -0.5035    0.5624 C   0  0  0  0  0  0  0  0  0  0  0  0
   -2.0609    1.9358    1.2200 C   0  0  0  0  0  0  0  0  0  0  0  0
   -3.2190    2.6730    0.6009 C   0  0  0  0  0  0  0  0  0  0  0  0
   -3.5091    1.9991   -0.6077 O   0  0  0  0  0  0  0  0  0  0  0  0
  1  2  1  0
  2  3  1  0
  3  4  2  0
  3  5  1  0
  5  6  1  0
  6  7  1  0
  8  7  1  6
  8  9  1  0
  9 10  1  0
 10 11  1  0
 11 12  2  0
 12 13  1  0
 13 14  2  0
 14 15  1  0
 15 16  2  0
 15 17  1  0
 17 18  1  0
 18 19  1  0
 16  8  1  0
 16 11  1  0
 19 14  1  0
M  END
>  <zinc_id>  (100) 
ZINC000003960338

>  <smiles>  (100) 
CCC(=O)NCC[C@@H]1CCc2ccc3c(c21)CCO3

$$$$
