
     RDKit          3D

 12 11  0  0  0  0  0  0  0  0999 V2000
   -0.2552   -0.1439   -1.8413 C   0  0  0  0  0  0  0  0  0  0  0  0
    0.6729   -0.6672   -0.6471 C   0  0  1  0  0  0  0  0  0  0  0  0
    1.9623    0.1423   -0.8790 C   0  0  0  0  0  0  0  0  0  0  0  0
    2.3228    0.8629    0.0632 O   0  0  0  0  0  0  0  0  0  0  0  0
    2.6797    0.0874   -2.0393 O   0  0  0  0  0  0  0  0  0  0  0  0
    0.0617    0.0550    0.5034 N   0  0  0  0  0  0  0  0  0  0  0  0
    0.0510    1.4295    0.5065 C   0  0  0  0  0  0  0  0  0  0  0  0
   -0.8892    2.0193   -0.5036 C   0  0  0  0  0  0  0  0  0  0  0  0
   -2.5423    1.4724   -0.1161 Cl  0  0  0  0  0  0  0  0  0  0  0  0
   -1.1059   -0.6007    1.0041 C   0  0  0  0  0  0  0  0  0  0  0  0
   -0.7700   -1.9164    1.6627 C   0  0  0  0  0  0  0  0  0  0  0  0
   -2.1878   -2.7406    2.2866 Cl  0  0  0  0  0  0  0  0  0  0  0  0
  2  1  1  6
  2  3  1  0
  3  4  2  0
  3  5  1  0
  2  6  1  0
  6  7  1  0
  7  8  1  0
  8  9  1  0
  6 10  1  0
 10 11  1  0
 11 12  1  0
M  END
>  <zinc_id>  (1) 
ZINC000000000015

>  <smiles>  (1) 
C[C@@H](C(=O)O)N(CCCl)CCCl

$$$$

     RDKit          3D

 20 20  0  0  0  0  0  0  0  0999 V2000
    2.5058   -0.2419   -0.9122 N   0  0  0  0  0  0  0  0  0  0  0  0
    3.6221    0.8287   -0.8084 C   0  0  1  0  0  0  0  0  0  0  0  0
    3.3740    1.2190    0.7157 C   0  0  0  0  0  0  0  0  0  0  0  0
    2.1348    1.7804    1.0470 C   0  0  0  0  0  0  0  0  0  0  0  0
    0.8870    1.1317    0.8152 C   0  0  0  0  0  0  0  0  0  0  0  0
    0.1343    1.5243   -0.3016 C   0  0  0  0  0  0  0  0  0  0  0  0
   -1.0551    0.9588   -0.5835 C   0  0  0  0  0  0  0  0  0  0  0  0
   -1.6081   -0.0541    0.2228 C   0  0  0  0  0  0  0  0  0  0  0  0
   -2.8741   -0.5931   -0.0878 N   0  0  0  0  0  0  0  0  0  0  0  0
   -3.6356    0.0877   -1.1624 C   0  0  0  0  0  0  0  0  0  0  0  0
   -4.8439    0.7986   -0.5423 C   0  0  0  0  0  0  0  0  0  0  0  0
   -5.7640    1.6138   -1.8036 Cl  0  0  0  0  0  0  0  0  0  0  0  0
   -3.5285   -1.6902    0.5214 C   0  0  0  0  0  0  0  0  0  0  0  0
   -2.7802   -2.5927    1.4082 C   0  0  0  0  0  0  0  0  0  0  0  0
   -1.5098   -3.4194    0.4342 Cl  0  0  0  0  0  0  0  0  0  0  0  0
   -0.8742   -0.4470    1.3239 C   0  0  0  0  0  0  0  0  0  0  0  0
    0.3194    0.1384    1.5845 C   0  0  0  0  0  0  0  0  0  0  0  0
    4.8269   -0.1698   -0.5313 C   0  0  0  0  0  0  0  0  0  0  0  0
    4.6415   -1.3748   -0.4594 O   0  0  0  0  0  0  0  0  0  0  0  0
    6.0279    0.5017   -0.3955 O   0  0  0  0  0  0  0  0  0  0  0  0
  2  1  1  1
  2  3  1  0
  3  4  1  0
  4  5  1  0
  5  6  2  0
  6  7  1  0
  7  8  2  0
  8  9  1  0
  9 10  1  0
 10 11  1  0
 11 12  1  0
  9 13  1  0
 13 14  1  0
 14 15  1  0
  8 16  1  0
 16 17  2  0
  2 18  1  0
 18 19  2  0
 18 20  1  0
 17  5  1  0
M  END
>  <zinc_id>  (2) 
ZINC000000000027

>  <smiles>  (2) 
N[C@@H](CCc1ccc(N(CCCl)CCCl)cc1)C(=O)O

$$$$

     RDKit          3D

 15 16  0  0  0  0  0  0  0  0999 V2000
   -4.2893    0.1685   -1.1598 N   0  0  0  0  0  0  0  0  0  0  0  0
   -3.1269    0.3026   -0.5990 C   0  0  0  0  0  0  0  0  0  0  0  0
   -2.8961    1.3921    0.2021 C   0  0  0  0  0  0  0  0  0  0  0  0
   -1.6702    1.6088    0.8432 C   0  0  0  0  0  0  0  0  0  0  0  0
   -0.6386    0.7022    0.6761 C   0  0  0  0  0  0  0  0  0  0  0  0
   -0.8725   -0.3855   -0.1265 C   0  0  0  0  0  0  0  0  0  0  0  0
   -2.0855   -0.6113   -0.7675 C   0  0  0  0  0  0  0  0  0  0  0  0
    0.2372   -1.2997   -0.3092 C   0  0  0  0  0  0  0  0  0  0  0  0
    0.1146   -2.3091   -1.0148 O   0  0  0  0  0  0  0  0  0  0  0  0
    1.4789   -1.0415    0.3237 N   0  0  0  0  0  0  0  0  0  0  0  0
    1.7789    0.5714    0.3206 C   0  0  2  0  0  0  0  0  0  0  0  0
    2.8671    0.3706    1.6091 C   0  0  0  0  0  0  0  0  0  0  0  0
    3.8974   -0.5621    1.0549 C   0  0  0  0  0  0  0  0  0  0  0  0
    4.6187    0.2424   -0.3601 Cl  0  0  0  0  0  0  0  0  0  0  0  0
    0.5863    0.8505    1.2779 O   0  0  0  0  0  0  0  0  0  0  0  0
  1  2  1  0
  2  3  2  0
  3  4  1  0
  4  5  2  0
  5  6  1  0
  6  7  2  0
  6  8  1  0
  8  9  2  0
  8 10  1  0
 10 11  1  0
 11 12  1  1
 12 13  1  0
 13 14  1  0
 11 15  1  0
  7  2  1  0
 15  5  1  0
M  END
>  <zinc_id>  (3) 
ZINC000000000028

>  <smiles>  (3) 
Nc1ccc2c(c1)C(=O)N[C@H](CCCl)O2

$$$$

     RDKit          3D

 18 19  0  0  0  0  0  0  0  0999 V2000
   -2.8028   -2.6672    0.8300 C   0  0  0  0  0  0  0  0  0  0  0  0
   -1.8201   -1.8299   -0.2344 C   0  0  2  0  0  0  0  0  0  0  0  0
   -0.7503   -1.5381    0.8927 N   0  0  0  0  0  0  0  0  0  0  0  0
    0.2643   -0.8573    0.1704 N   0  0  0  0  0  0  0  0  0  0  0  0
    1.4783   -0.6020    0.8465 C   0  0  0  0  0  0  0  0  0  0  0  0
    1.5974   -0.9886    2.0527 O   0  0  0  0  0  0  0  0  0  0  0  0
    2.6178    0.0950    0.2162 C   0  0  0  0  0  0  0  0  0  0  0  0
    3.7826    0.2910    0.9287 C   0  0  0  0  0  0  0  0  0  0  0  0
    4.8645    0.9281    0.4005 C   0  0  0  0  0  0  0  0  0  0  0  0
    4.8503    1.4169   -0.8922 C   0  0  0  0  0  0  0  0  0  0  0  0
    3.6806    1.2173   -1.6036 C   0  0  0  0  0  0  0  0  0  0  0  0
    2.5813    0.5714   -1.0720 C   0  0  0  0  0  0  0  0  0  0  0  0
   -2.6606   -0.4995   -0.1225 C   0  0  0  0  0  0  0  0  0  0  0  0
   -2.9743    0.0603   -1.3322 C   0  0  0  0  0  0  0  0  0  0  0  0
   -3.7269    1.2557   -1.3871 C   0  0  0  0  0  0  0  0  0  0  0  0
   -4.1211    1.8199   -0.2041 C   0  0  0  0  0  0  0  0  0  0  0  0
   -3.8025    1.2522    1.0294 C   0  0  0  0  0  0  0  0  0  0  0  0
   -3.0583    0.0748    0.9885 C   0  0  0  0  0  0  0  0  0  0  0  0
  2  1  1  1
  2  3  1  0
  3  4  1  0
  4  5  1  0
  5  6  2  0
  5  7  1  0
  7  8  2  0
  8  9  1  0
  9 10  2  0
 10 11  1  0
 11 12  2  0
  2 13  1  0
 13 14  2  0
 14 15  1  0
 15 16  2  0
 16 17  1  0
 17 18  2  0
 12  7  1  0
 18 13  1  0
M  END
>  <zinc_id>  (4) 
ZINC000000000068

>  <smiles>  (4) 
C[C@H](NNC(=O)c1ccccc1)c1ccccc1

$$$$

     RDKit          2D

 22 25  0  0  0  0  0  0  0  0999 V2000
    6.1636   -1.0942    0.0000 C   0  0  0  0  0  0  0  0  0  0  0  0
    4.6645   -1.0407    0.0000 C   0  0  0  0  0  0  0  0  0  0  0  0
    3.9613    0.2842    0.0000 O   0  0  0  0  0  0  0  0  0  0  0  0
    2.4623    0.3377    0.0000 C   0  0  0  0  0  0  0  0  0  0  0  0
    1.6664   -0.9337    0.0000 O   0  0  0  0  0  0  0  0  0  0  0  0
    0.1674   -0.8802    0.0000 C   0  0  0  0  0  0  0  0  0  0  0  0
   -1.1900   -1.5187    0.0000 O   0  0  0  0  0  0  0  0  0  0  0  0
   -1.4025   -2.8124    0.0000 C   0  0  0  0  0  0  0  0  0  0  0  0
   -1.4560   -4.3115    0.0000 C   0  0  0  0  0  0  0  0  0  0  0  0
   -2.7299   -2.1138    0.0000 C   0  0  0  0  0  0  0  0  0  0  0  0
   -3.0113   -0.6404    0.0000 C   0  0  0  0  0  0  0  0  0  0  0  0
   -2.0349    0.4982    0.0000 C   0  0  0  0  0  0  0  0  0  0  0  0
   -2.7381    1.8232    0.0000 C   0  0  0  0  0  0  0  0  0  0  0  0
   -4.2371    1.8767    0.0000 C   0  0  0  0  0  0  0  0  0  0  0  0
   -1.9422    3.0946    0.0000 C   0  0  0  0  0  0  0  0  0  0  0  0
   -0.4432    3.0411    0.0000 C   0  0  0  0  0  0  0  0  0  0  0  0
    0.2600    1.7162    0.0000 C   0  0  0  0  0  0  0  0  0  0  0  0
    1.7591    1.6627    0.0000 C   0  0  0  0  0  0  0  0  0  0  0  0
    2.5549    2.9341    0.0000 C   0  0  0  0  0  0  0  0  0  0  0  0
   -0.5358    0.4447    0.0000 C   0  0  0  0  0  0  0  0  0  0  0  0
   -0.9372   -1.0635    0.0000 O   0  0  0  0  0  0  0  0  0  0  0  0
   -1.0012   -1.3042    0.0000 O   0  0  0  0  0  0  0  0  0  0  0  0
  1  2  1  0
  2  3  1  0
  4  3  1  1
  4  5  1  0
  6  5  1  6
  6  7  1  0
  7  8  1  0
  8  9  1  6
  8 10  1  0
 10 11  1  0
 12 11  1  1
 12 13  1  0
 13 14  1  1
 13 15  1  0
 15 16  1  0
 17 16  1  6
 17 18  1  0
 18 19  1  6
 17 20  1  0
 20 21  1  1
 21 22  1  0
 18  4  1  0
 20  6  1  0
 22  8  1  0
 20 12  1  0
M  END
>  <zinc_id>  (5) 
ZINC000000000081

>  <smiles>  (5) 
CCO[C@H]1O[C@@H]2O[C@]3(C)CC[C@H]4[C@@H](C)CC[C@H]([C@@H]1C)[C@@]42OO3

$$$$

     RDKit          3D

 20 20  0  0  0  0  0  0  0  0999 V2000
   -6.7389   -0.3059    0.2630 C   0  0  0  0  0  0  0  0  0  0  0  0
   -6.3268   -0.1688    0.0579 C   0  0  0  0  0  0  0  0  0  0  0  0
   -5.1331   -0.8016   -0.3499 O   0  0  0  0  0  0  0  0  0  0  0  0
   -4.0897   -0.0733   -0.9473 C   0  0  0  0  0  0  0  0  0  0  0  0
   -4.1796    1.1584   -1.1396 O   0  0  0  0  0  0  0  0  0  0  0  0
   -2.8927   -0.7219   -1.3573 N   0  0  0  0  0  0  0  0  0  0  0  0
   -1.8303   -0.0482   -1.9614 N   0  0  0  0  0  0  0  0  0  0  0  0
   -0.5953   -0.0014   -1.2686 C   0  0  0  0  0  0  0  0  0  0  0  0
   -0.4297   -0.5367   -0.0218 C   0  0  0  0  0  0  0  0  0  0  0  0
    0.7909   -0.4682    0.6043 C   0  0  0  0  0  0  0  0  0  0  0  0
    1.8218    0.1508   -0.0590 C   0  0  0  0  0  0  0  0  0  0  0  0
    3.1312    0.2744    0.5325 N   0  0  0  0  0  0  0  0  0  0  0  0
    3.5000    1.4717    1.2193 C   0  0  0  0  0  0  0  0  0  0  0  0
    2.3901    2.4917    1.2067 C   0  0  0  0  0  0  0  0  0  0  0  0
    3.9977   -0.8629    0.3891 C   0  0  0  0  0  0  0  0  0  0  0  0
    4.1301   -1.4893    1.9090 C   0  0  1  0  0  0  0  0  0  0  0  0
    5.6147   -2.1861    1.5870 C   0  0  0  0  0  0  0  0  0  0  0  0
    4.7661   -0.2357    2.4902 O   0  0  0  0  0  0  0  0  0  0  0  0
    1.6320    0.6724   -1.2905 N   0  0  0  0  0  0  0  0  0  0  0  0
    0.4413    0.5877   -1.8638 N   0  0  0  0  0  0  0  0  0  0  0  0
  1  2  1  0
  2  3  1  0
  3  4  1  0
  4  5  2  0
  4  6  1  0
  6  7  1  0
  7  8  1  0
  8  9  2  0
  9 10  1  0
 10 11  2  0
 11 12  1  0
 12 13  1  0
 13 14  1  0
 12 15  1  0
 15 16  1  0
 16 17  1  6
 16 18  1  0
 11 19  1  0
 19 20  2  0
 20  8  1  0
M  END
>  <zinc_id>  (6) 
ZINC000000000113

>  <smiles>  (6) 
CCOC(=O)NNc1ccc(N(CC)C[C@@H](C)O)nn1

$$$$

     RDKit          3D

 12 13  0  0  0  0  0  0  0  0999 V2000
   -0.0062   -0.0791    1.7146 C   0  0  0  0  0  0  0  0  0  0  0  0
   -0.3828   -0.4235    0.8967 C   0  0  0  0  0  0  0  0  0  0  0  0
   -1.4145   -1.5487    1.0944 C   0  0  0  0  0  0  0  0  0  0  0  0
    0.7980   -1.2018    0.0982 C   0  0  1  0  0  0  0  0  0  0  0  0
   -0.2394   -1.7768   -1.0001 C   0  0  0  0  0  0  0  0  0  0  0  0
   -1.0311   -0.5786   -1.3691 C   0  0  0  0  0  0  0  0  0  0  0  0
   -0.9025    0.3932   -0.2555 C   0  0  1  0  0  0  0  0  0  0  0  0
   -2.0707    1.2181    0.0471 C   0  0  0  0  0  0  0  0  0  0  0  0
    0.3808    1.1530   -0.3969 C   0  0  0  0  0  0  0  0  0  0  0  0
    0.6158    2.3229   -0.2159 O   0  0  0  0  0  0  0  0  0  0  0  0
    1.3101    0.0446   -0.8325 C   0  0  1  0  0  0  0  0  0  0  0  0
    2.9425    0.4767    0.2190 Br  0  0  0  0  0  0  0  0  0  0  0  0
  1  2  1  0
  2  3  1  0
  2  4  1  0
  4  5  1  6
  5  6  1  0
  6  7  1  0
  7  8  1  1
  7  9  1  0
  9 10  2  0
  9 11  1  0
 11 12  1  1
  7  2  1  0
 11  4  1  0
M  END
>  <zinc_id>  (7) 
ZINC000000000116

>  <smiles>  (7) 
CC1(C)[C@H]2CC[C@]1(C)C(=O)[C@H]2Br

$$$$

     RDKit          3D

 14 14  0  0  0  0  0  0  0  0999 V2000
    4.6256    0.0329   -0.4673 N   0  0  0  0  0  0  0  0  0  0  0  0
    3.4928    0.3684   -0.3985 C   0  0  0  0  0  0  0  0  0  0  0  0
    3.2322    1.6238   -0.4192 O   0  0  0  0  0  0  0  0  0  0  0  0
    2.3605   -0.4760   -0.2934 N   0  0  0  0  0  0  0  0  0  0  0  0
    1.0052   -0.0660   -0.2114 C   0  0  0  0  0  0  0  0  0  0  0  0
    0.7347    1.1145   -0.2291 O   0  0  0  0  0  0  0  0  0  0  0  0
    0.0089   -1.2429   -0.1054 C   0  0  1  0  0  0  0  0  0  0  0  0
    0.2165   -1.4634    1.7668 Cl  0  0  0  0  0  0  0  0  0  0  0  0
   -1.3398   -0.5369   -0.0332 C   0  0  0  0  0  0  0  0  0  0  0  0
   -1.6181    0.5990    0.6245 C   0  0  0  0  0  0  0  0  0  0  0  0
   -2.8447    1.1939    0.6596 C   0  0  0  0  0  0  0  0  0  0  0  0
   -3.8611    0.5809   -0.0293 C   0  0  0  0  0  0  0  0  0  0  0  0
   -3.6543   -0.5855   -0.7274 C   0  0  0  0  0  0  0  0  0  0  0  0
   -2.3585   -1.1428   -0.7182 C   0  0  0  0  0  0  0  0  0  0  0  0
  1  2  1  0
  2  3  2  0
  2  4  1  0
  4  5  1  0
  5  6  2  0
  5  7  1  0
  7  8  1  1
  7  9  1  0
  9 10  2  0
 10 11  1  0
 11 12  2  0
 12 13  1  0
 13 14  2  0
 14  9  1  0
M  END
>  <zinc_id>  (8) 
ZINC000000000134

>  <smiles>  (8) 
NC(=O)NC(=O)[C@@H](Cl)c1ccccc1

$$$$

     RDKit          3D

 14 15  0  0  0  0  0  0  0  0999 V2000
    0.4299   -2.3772    0.0800 O   0  0  0  0  0  0  0  0  0  0  0  0
    0.3192   -1.3584    0.1073 C   0  0  0  0  0  0  0  0  0  0  0  0
    1.4154   -0.4508    0.1263 N   0  0  0  0  0  0  0  0  0  0  0  0
    1.2014    0.8653   -0.7455 C   0  0  2  0  0  0  0  0  0  0  0  0
    2.3959    1.7327   -0.0106 C   0  0  0  0  0  0  0  0  0  0  0  0
    3.6919    1.0614   -0.2185 C   0  0  0  0  0  0  0  0  0  0  0  0
    3.8991   -0.5340    0.4176 Cl  0  0  0  0  0  0  0  0  0  0  0  0
    0.0761    1.4240    0.1871 O   0  0  0  0  0  0  0  0  0  0  0  0
   -1.0893    0.7059    0.1712 C   0  0  0  0  0  0  0  0  0  0  0  0
   -2.3241    1.2934    0.1922 C   0  0  0  0  0  0  0  0  0  0  0  0
   -3.4912    0.5454    0.1756 C   0  0  0  0  0  0  0  0  0  0  0  0
   -3.3747   -0.8134    0.1372 C   0  0  0  0  0  0  0  0  0  0  0  0
   -2.1520   -1.4097    0.1159 C   0  0  0  0  0  0  0  0  0  0  0  0
   -0.9979   -0.6846    0.1319 C   0  0  0  0  0  0  0  0  0  0  0  0
  1  2  2  0
  2  3  1  0
  3  4  1  0
  4  5  1  1
  5  6  1  0
  6  7  1  0
  4  8  1  0
  8  9  1  0
  9 10  2  0
 10 11  1  0
 11 12  2  0
 12 13  1  0
 13 14  2  0
 14  2  1  0
 14  9  1  0
M  END
>  <zinc_id>  (9) 
ZINC000000000138

>  <smiles>  (9) 
O=C1N[C@H](CCCl)Oc2ccccc21

$$$$

     RDKit          2D

  9  9  0  0  0  0  0  0  0  0999 V2000
    3.3914   -1.1523    0.0000 O   0  0  0  0  0  0  0  0  0  0  0  0
    2.7545    0.2058    0.0000 C   0  0  0  0  0  0  0  0  0  0  0  0
    1.2600    0.3333    0.0000 C   0  0  0  0  0  0  0  0  0  0  0  0
    0.4846    1.6173    0.0000 C   0  0  0  0  0  0  0  0  0  0  0  0
   -0.9762    1.2767    0.0000 O   0  0  0  0  0  0  0  0  0  0  0  0
   -1.1037   -0.2178    0.0000 C   0  0  0  0  0  0  0  0  0  0  0  0
   -2.3878   -0.9932    0.0000 C   0  0  0  0  0  0  0  0  0  0  0  0
   -3.7013   -0.2688    0.0000 I   0  0  0  0  0  0  0  0  0  0  0  0
    0.2783   -0.8009    0.0000 O   0  0  0  0  0  0  0  0  0  0  0  0
  1  2  1  0
  3  2  1  6
  3  4  1  0
  4  5  1  0
  5  6  1  0
  6  7  1  1
  7  8  1  0
  6  9  1  0
  9  3  1  0
M  END
>  <zinc_id>  (10) 
ZINC000000000238

>  <smiles>  (10) 
OC[C@H]1CO[C@H](CI)O1

$$$$

     RDKit          3D

 18 19  0  0  0  0  0  0  0  0999 V2000
    4.4810    1.3702    0.1382 O   0  0  0  0  0  0  0  0  0  0  0  0
    3.9257    0.2818    0.1970 C   0  0  0  0  0  0  0  0  0  0  0  0
    3.8234   -0.3648    1.3792 O   0  0  0  0  0  0  0  0  0  0  0  0
    3.3539   -0.2758   -1.1150 C   0  0  1  0  0  0  0  0  0  0  0  0
    3.6165   -2.1319   -0.7062 Cl  0  0  0  0  0  0  0  0  0  0  0  0
    1.8308   -0.2838   -0.7177 C   0  0  0  0  0  0  0  0  0  0  0  0
    1.1136   -1.3618   -0.5622 C   0  0  0  0  0  0  0  0  0  0  0  0
   -0.2298   -1.3078   -0.2207 C   0  0  0  0  0  0  0  0  0  0  0  0
   -0.8635   -0.0831   -0.0379 C   0  0  0  0  0  0  0  0  0  0  0  0
   -2.2682    0.1776    0.1430 C   0  0  0  0  0  0  0  0  0  0  0  0
   -2.8012   -0.4127    1.5168 C   0  0  0  0  0  0  0  0  0  0  0  0
   -3.9650    0.6534    1.7764 C   0  0  0  0  0  0  0  0  0  0  0  0
   -4.8715    0.4818    0.5436 C   0  0  0  0  0  0  0  0  0  0  0  0
   -4.4925   -0.8113   -0.2185 C   0  0  0  0  0  0  0  0  0  0  0  0
   -3.1288   -0.6809   -0.8500 C   0  0  0  0  0  0  0  0  0  0  0  0
   -0.0608    1.0949   -0.2190 C   0  0  0  0  0  0  0  0  0  0  0  0
   -0.7404    2.6747    0.0489 Cl  0  0  0  0  0  0  0  0  0  0  0  0
    1.2768    0.9794   -0.5571 C   0  0  0  0  0  0  0  0  0  0  0  0
  1  2  2  0
  2  3  1  0
  2  4  1  0
  4  5  1  1
  4  6  1  0
  6  7  2  0
  7  8  1  0
  8  9  2  0
  9 10  1  0
 10 11  1  0
 11 12  1  0
 12 13  1  0
 13 14  1  0
 14 15  1  0
  9 16  1  0
 16 17  1  0
 16 18  2  0
 18  6  1  0
 15 10  1  0
M  END
>  <zinc_id>  (11) 
ZINC000000000291

>  <smiles>  (11) 
O=C(O)[C@@H](Cl)c1ccc(C2CCCCC2)c(Cl)c1

$$$$

     RDKit          3D

 21 24  0  0  0  0  0  0  0  0999 V2000
    3.5749    0.1538   -0.8531 C   0  0  0  0  0  0  0  0  0  0  0  0
    2.3662   -0.0839   -0.3634 N   0  0  0  0  0  0  0  0  0  0  0  0
    1.4407   -1.0108   -0.9022 C   0  0  0  0  0  0  0  0  0  0  0  0
    1.6121   -1.4733   -2.0321 O   0  0  0  0  0  0  0  0  0  0  0  0
    0.2733   -1.4298   -0.1266 C   0  0  2  0  0  0  0  0  0  0  0  0
   -0.7716   -2.1724   -0.8096 C   0  0  0  0  0  0  0  0  0  0  0  0
   -1.8279   -1.0712   -0.9744 C   0  0  0  0  0  0  0  0  0  0  0  0
   -2.6663   -0.6849   -1.8454 C   0  0  0  0  0  0  0  0  0  0  0  0
   -3.4961    0.4775   -1.5749 C   0  0  0  0  0  0  0  0  0  0  0  0
   -3.3663    1.0996   -0.5004 C   0  0  0  0  0  0  0  0  0  0  0  0
   -2.4433    0.8466    0.6154 C   0  0  1  0  0  0  0  0  0  0  0  0
   -3.4631    0.4530    1.6665 O   0  0  0  0  0  0  0  0  0  0  0  0
   -1.7635   -0.5594    0.4814 C   0  0  2  0  0  0  0  0  0  0  0  0
   -0.2996   -0.1724    0.3861 N   0  0  0  0  0  0  0  0  0  0  0  0
    0.4780    0.9411    0.6553 C   0  0  0  0  0  0  0  0  0  0  0  0
   -0.0111    2.0857    0.7401 O   0  0  0  0  0  0  0  0  0  0  0  0
    1.9588    0.6852    0.8407 C   0  0  2  0  0  0  0  0  0  0  0  0
    2.7447    1.9065    1.0510 C   0  0  0  0  0  0  0  0  0  0  0  0
    2.6078    2.7477   -0.0322 O   0  0  0  0  0  0  0  0  0  0  0  0
    2.0713   -0.5222    2.1979 S   0  0  0  0  0  0  0  0  0  0  0  0
    0.9809   -2.2165    1.3798 S   0  0  0  0  0  0  0  0  0  0  0  0
  1  2  1  0
  2  3  1  0
  3  4  2  0
  3  5  1  0
  5  6  1  6
  6  7  1  0
  7  8  2  0
  8  9  1  0
  9 10  2  0
 10 11  1  0
 11 12  1  1
 11 13  1  0
 13 14  1  0
 14 15  1  0
 15 16  2  0
 15 17  1  0
 17 18  1  1
 18 19  1  0
 17 20  1  0
 20 21  1  0
 17  2  1  0
 14  5  1  0
 21  5  1  0
 13  7  1  6
M  END
>  <zinc_id>  (12) 
ZINC000000000343

>  <smiles>  (12) 
CN1C(=O)[C@]23CC4=CC=C[C@@H](O)[C@@H]4N2C(=O)[C@@]1(CO)SS3

$$$$

     RDKit          2D

 10 10  0  0  0  0  0  0  0  0999 V2000
    2.8819   -1.5989    0.0000 C   0  0  0  0  0  0  0  0  0  0  0  0
    2.3871   -0.1828    0.0000 C   0  0  0  0  0  0  0  0  0  0  0  0
    3.3661    0.9537    0.0000 I   0  0  0  0  0  0  0  0  0  0  0  0
    0.9134    0.0968    0.0000 C   0  0  0  0  0  0  0  0  0  0  0  0
    0.2734    1.4534    0.0000 O   0  0  0  0  0  0  0  0  0  0  0  0
   -1.2146    1.2638    0.0000 C   0  0  0  0  0  0  0  0  0  0  0  0
   -1.4942   -0.2099    0.0000 C   0  0  0  0  0  0  0  0  0  0  0  0
   -2.8508   -0.8499    0.0000 C   0  0  0  0  0  0  0  0  0  0  0  0
   -4.0834    0.0049    0.0000 O   0  0  0  0  0  0  0  0  0  0  0  0
   -0.1790   -0.9312    0.0000 O   0  0  0  0  0  0  0  0  0  0  0  0
  2  1  1  6
  2  3  1  0
  2  4  1  0
  4  5  1  6
  5  6  1  0
  6  7  1  0
  7  8  1  1
  8  9  1  0
  7 10  1  0
 10  4  1  0
M  END
>  <zinc_id>  (13) 
ZINC000000000344

>  <smiles>  (13) 
C[C@@H](I)[C@H]1OC[C@H](CO)O1

$$$$

     RDKit          3D

 19 19  0  0  0  0  0  0  0  0999 V2000
   -2.5193   -1.5410    0.3688 N   0  0  0  0  0  0  0  0  0  0  0  0
   -1.9496   -0.2200    1.0410 C   0  0  1  0  0  0  0  0  0  0  0  0
   -1.6293    0.4940   -0.4334 C   0  0  0  0  0  0  0  0  0  0  0  0
   -0.6800   -0.4089   -1.0909 C   0  0  0  0  0  0  0  0  0  0  0  0
   -1.1370   -1.2241   -2.1059 C   0  0  0  0  0  0  0  0  0  0  0  0
   -0.2939   -2.0840   -2.7631 C   0  0  0  0  0  0  0  0  0  0  0  0
    1.0289   -2.1170   -2.3888 C   0  0  0  0  0  0  0  0  0  0  0  0
    1.4925   -1.3004   -1.3715 C   0  0  0  0  0  0  0  0  0  0  0  0
    0.6375   -0.4289   -0.7046 C   0  0  0  0  0  0  0  0  0  0  0  0
    1.0512    0.4326    0.3430 N   0  0  0  0  0  0  0  0  0  0  0  0
    0.8785    1.8704    0.3003 C   0  0  0  0  0  0  0  0  0  0  0  0
    2.2441    2.5211    0.1740 C   0  0  0  0  0  0  0  0  0  0  0  0
    3.0403    1.9821   -1.3098 Cl  0  0  0  0  0  0  0  0  0  0  0  0
    1.6868   -0.1408    1.5119 C   0  0  0  0  0  0  0  0  0  0  0  0
    3.1552    0.2580    1.5329 C   0  0  0  0  0  0  0  0  0  0  0  0
    3.9844   -0.4142    2.9494 Cl  0  0  0  0  0  0  0  0  0  0  0  0
   -3.3573    0.5136    1.2293 C   0  0  0  0  0  0  0  0  0  0  0  0
   -4.4080    0.0600    0.9021 O   0  0  0  0  0  0  0  0  0  0  0  0
   -3.2250    1.7475    1.8155 O   0  0  0  0  0  0  0  0  0  0  0  0
  2  1  1  6
  2  3  1  0
  3  4  1  0
  4  5  2  0
  5  6  1  0
  6  7  2  0
  7  8  1  0
  8  9  2  0
  9 10  1  0
 10 11  1  0
 11 12  1  0
 12 13  1  0
 10 14  1  0
 14 15  1  0
 15 16  1  0
  2 17  1  0
 17 18  2  0
 17 19  1  0
  9  4  1  0
M  END
>  <zinc_id>  (14) 
ZINC000000000462

>  <smiles>  (14) 
N[C@@H](Cc1ccccc1N(CCCl)CCCl)C(=O)O

$$$$

     RDKit          3D

 19 19  0  0  0  0  0  0  0  0999 V2000
   -2.8144    0.9810    1.5304 N   0  0  0  0  0  0  0  0  0  0  0  0
   -2.9279    1.3051   -0.0173 C   0  0  1  0  0  0  0  0  0  0  0  0
   -2.6151   -0.2515   -0.5131 C   0  0  0  0  0  0  0  0  0  0  0  0
   -1.3147   -0.6322   -0.0278 C   0  0  0  0  0  0  0  0  0  0  0  0
   -1.2476   -1.2382    1.2243 C   0  0  0  0  0  0  0  0  0  0  0  0
   -0.0771   -1.6528    1.8035 C   0  0  0  0  0  0  0  0  0  0  0  0
    1.0992   -1.4714    1.1336 C   0  0  0  0  0  0  0  0  0  0  0  0
    1.0978   -0.8808   -0.1014 C   0  0  0  0  0  0  0  0  0  0  0  0
    2.3107   -0.6722   -0.8487 N   0  0  0  0  0  0  0  0  0  0  0  0
    3.5275   -1.1243   -0.2485 C   0  0  0  0  0  0  0  0  0  0  0  0
    4.4632   -0.0390    0.1615 C   0  0  0  0  0  0  0  0  0  0  0  0
    5.9284   -0.7526    0.8920 Cl  0  0  0  0  0  0  0  0  0  0  0  0
    2.3003   -0.0368   -2.1471 C   0  0  0  0  0  0  0  0  0  0  0  0
    2.9651    1.2958   -2.0928 C   0  0  0  0  0  0  0  0  0  0  0  0
    2.1608    2.4017   -0.9520 Cl  0  0  0  0  0  0  0  0  0  0  0  0
   -0.0970   -0.4661   -0.6754 C   0  0  0  0  0  0  0  0  0  0  0  0
   -4.5121    1.1259   -0.1197 C   0  0  0  0  0  0  0  0  0  0  0  0
   -5.0012    1.3184   -1.2551 O   0  0  0  0  0  0  0  0  0  0  0  0
   -5.2459    0.7901    0.9595 O   0  0  0  0  0  0  0  0  0  0  0  0
  2  1  1  1
  2  3  1  0
  3  4  1  0
  4  5  2  0
  5  6  1  0
  6  7  2  0
  7  8  1  0
  8  9  1  0
  9 10  1  0
 10 11  1  0
 11 12  1  0
  9 13  1  0
 13 14  1  0
 14 15  1  0
  8 16  2  0
  2 17  1  0
 17 18  2  0
 17 19  1  0
 16  4  1  0
M  END
>  <zinc_id>  (15) 
ZINC000000000466

>  <smiles>  (15) 
N[C@@H](Cc1cccc(N(CCCl)CCCl)c1)C(=O)O

$$$$

     RDKit          3D

 14 14  0  0  0  0  0  0  0  0999 V2000
   -0.0604    2.9510   -0.4104 C   0  0  0  0  0  0  0  0  0  0  0  0
   -0.7857    1.6880   -0.1071 C   0  0  0  0  0  0  0  0  0  0  0  0
   -2.0223    1.7316    0.4542 N   0  0  0  0  0  0  0  0  0  0  0  0
   -2.4821    0.4860    0.6123 C   0  0  0  0  0  0  0  0  0  0  0  0
   -1.5097   -0.3483    0.1393 C   0  0  0  0  0  0  0  0  0  0  0  0
   -1.5189   -1.7720    0.0862 N   0  0  0  0  0  0  0  0  0  0  0  0
   -2.4938   -2.4284    0.5004 O   0  0  0  0  0  0  0  0  0  0  0  0
   -0.4597   -2.4840   -0.4211 O   0  0  0  0  0  0  0  0  0  0  0  0
   -0.4792    0.4137   -0.2958 N   0  0  0  0  0  0  0  0  0  0  0  0
    0.7642   -0.0716   -0.8539 C   0  0  0  0  0  0  0  0  0  0  0  0
    1.7341   -0.4111    0.4150 C   0  0  2  0  0  0  0  0  0  0  0  0
    1.7313    0.9884    0.9521 O   0  0  0  0  0  0  0  0  0  0  0  0
    3.1169   -0.2230   -0.4564 C   0  0  0  0  0  0  0  0  0  0  0  0
    4.4652   -0.5204    0.6113 Cl  0  0  0  0  0  0  0  0  0  0  0  0
  1  2  1  0
  2  3  2  0
  3  4  1  0
  4  5  2  0
  5  6  1  0
  6  7  2  0
  6  8  1  0
  5  9  1  0
  9 10  1  0
 10 11  1  0
 11 12  1  1
 11 13  1  0
 13 14  1  0
  9  2  1  0
M  CHG  2   6   1   8  -1
M  END
>  <zinc_id>  (16) 
ZINC000000000563

>  <smiles>  (16) 
Cc1ncc([N+](=O)[O-])n1C[C@H](O)CCl

$$$$

     RDKit          3D

 22 24  0  0  0  0  0  0  0  0999 V2000
   -1.8369    4.5373   -0.2334 C   0  0  0  0  0  0  0  0  0  0  0  0
   -1.6056    3.3727   -0.5486 C   0  0  0  0  0  0  0  0  0  0  0  0
   -1.7849    2.3433    0.3727 O   0  0  0  0  0  0  0  0  0  0  0  0
   -1.3879    0.8513   -0.3462 P   0  0  1  0  0  0  0  0  0  0  0  0
   -1.4868    1.0671   -2.0611 S   0  0  0  0  0  0  0  0  0  0  0  0
    0.1692    0.4300    0.1677 O   0  0  0  0  0  0  0  0  0  0  0  0
    1.2020    0.0541   -0.6774 C   0  0  0  0  0  0  0  0  0  0  0  0
    1.0579   -0.0143   -2.0480 C   0  0  0  0  0  0  0  0  0  0  0  0
    2.1148   -0.3937   -2.8483 C   0  0  0  0  0  0  0  0  0  0  0  0
    3.3346   -0.7104   -2.2813 C   0  0  0  0  0  0  0  0  0  0  0  0
    3.4890   -0.6444   -0.9032 C   0  0  0  0  0  0  0  0  0  0  0  0
    4.6689   -0.9444   -0.2752 C   0  0  0  0  0  0  0  0  0  0  0  0
    4.7825   -0.8663    1.1015 C   0  0  0  0  0  0  0  0  0  0  0  0
    3.7005   -0.4812    1.8804 C   0  0  0  0  0  0  0  0  0  0  0  0
    2.5497   -0.1904    1.2468 N   0  0  0  0  0  0  0  0  0  0  0  0
    2.4164   -0.2601   -0.0990 C   0  0  0  0  0  0  0  0  0  0  0  0
   -2.5971   -0.3957    0.0946 C   0  0  0  0  0  0  0  0  0  0  0  0
   -2.4451   -1.2261    1.1817 C   0  0  0  0  0  0  0  0  0  0  0  0
   -3.3964   -2.1756    1.4918 C   0  0  0  0  0  0  0  0  0  0  0  0
   -4.5090   -2.3036    0.7175 C   0  0  0  0  0  0  0  0  0  0  0  0
   -4.7001   -1.4974   -0.3740 C   0  0  0  0  0  0  0  0  0  0  0  0
   -3.7355   -0.5520   -0.6685 C   0  0  0  0  0  0  0  0  0  0  0  0
  1  2  1  0
  2  3  1  0
  4  3  1  1
  4  5  2  0
  4  6  1  0
  6  7  1  0
  7  8  2  0
  8  9  1  0
  9 10  2  0
 10 11  1  0
 11 12  2  0
 12 13  1  0
 13 14  2  0
 14 15  1  0
 15 16  2  0
  4 17  1  0
 17 18  2  0
 18 19  1  0
 19 20  2  0
 20 21  1  0
 21 22  2  0
 16  7  1  0
 22 17  1  0
 16 11  1  0
M  END
>  <zinc_id>  (17) 
ZINC000000000691

>  <smiles>  (17) 
CCO[P@@](=S)(Oc1cccc2cccnc12)c1ccccc1

$$$$

     RDKit          3D

 17 17  0  0  0  0  0  0  0  0999 V2000
    0.5181   -2.0077   -0.0939 O   0  0  0  0  0  0  0  0  0  0  0  0
    0.1754   -0.6096    0.1132 P   0  0  1  0  0  0  0  0  0  0  0  0
   -1.2898   -0.1896   -0.6751 N   0  0  0  0  0  0  0  0  0  0  0  0
   -2.0993   -1.1918   -1.1759 C   0  0  0  0  0  0  0  0  0  0  0  0
   -2.9978   -1.8429   -0.1991 C   0  0  0  0  0  0  0  0  0  0  0  0
   -2.2308   -2.6359    1.1595 Cl  0  0  0  0  0  0  0  0  0  0  0  0
   -1.9199    0.9772   -0.2408 C   0  0  0  0  0  0  0  0  0  0  0  0
   -2.5440    1.8055   -1.3418 C   0  0  0  0  0  0  0  0  0  0  0  0
   -3.2726    3.2311   -0.5662 Cl  0  0  0  0  0  0  0  0  0  0  0  0
   -0.1127   -0.4195    1.8000 O   0  0  0  0  0  0  0  0  0  0  0  0
    0.2343    0.9154    2.1001 C   0  0  0  0  0  0  0  0  0  0  0  0
    1.7322    1.0227    1.9658 C   0  0  0  0  0  0  0  0  0  0  0  0
    2.0376    1.2798    0.4983 C   0  0  0  0  0  0  0  0  0  0  0  0
    1.5219    0.3423   -0.3710 N   0  0  0  0  0  0  0  0  0  0  0  0
    2.2093   -0.0564   -1.5051 C   0  0  0  0  0  0  0  0  0  0  0  0
    3.4852   -0.8440   -1.2145 C   0  0  0  0  0  0  0  0  0  0  0  0
    4.5530    0.2234   -0.2534 Cl  0  0  0  0  0  0  0  0  0  0  0  0
  1  2  2  0
  2  3  1  6
  3  4  1  0
  4  5  1  0
  5  6  1  0
  3  7  1  0
  7  8  1  0
  8  9  1  0
  2 10  1  0
 10 11  1  0
 11 12  1  0
 12 13  1  0
 13 14  1  0
 14 15  1  0
 15 16  1  0
 16 17  1  0
 14  2  1  0
M  END
>  <zinc_id>  (18) 
ZINC000000000816

>  <smiles>  (18) 
O=[P@@]1(N(CCCl)CCCl)OCCCN1CCCl

$$$$

     RDKit          3D

 22 23  0  0  0  0  0  0  0  0999 V2000
    3.8774    1.3267    2.1449 N   0  0  0  0  0  0  0  0  0  0  0  0
    3.9534   -0.2210    1.9157 C   0  0  1  0  0  0  0  0  0  0  0  0
    2.4874   -0.4905    1.4163 C   0  0  0  0  0  0  0  0  0  0  0  0
    2.0517    0.1900    0.2378 C   0  0  0  0  0  0  0  0  0  0  0  0
    2.6195    0.9294   -0.7700 C   0  0  0  0  0  0  0  0  0  0  0  0
    1.7638    1.3353   -1.6739 N   0  0  0  0  0  0  0  0  0  0  0  0
    0.5685    0.8650   -1.2836 C   0  0  0  0  0  0  0  0  0  0  0  0
   -0.6590    1.0449   -1.9147 C   0  0  0  0  0  0  0  0  0  0  0  0
   -1.7551    0.4724   -1.3182 C   0  0  0  0  0  0  0  0  0  0  0  0
   -1.6669   -0.2548   -0.1412 C   0  0  0  0  0  0  0  0  0  0  0  0
   -2.8795   -0.7784    0.3540 N   0  0  0  0  0  0  0  0  0  0  0  0
   -4.0575    0.0347    0.5767 C   0  0  0  0  0  0  0  0  0  0  0  0
   -3.8007    1.4592    0.2138 C   0  0  0  0  0  0  0  0  0  0  0  0
   -5.2004    2.5101    0.4570 Cl  0  0  0  0  0  0  0  0  0  0  0  0
   -2.9659   -2.1867    0.6625 C   0  0  0  0  0  0  0  0  0  0  0  0
   -3.8891   -2.9382   -0.2687 C   0  0  0  0  0  0  0  0  0  0  0  0
   -5.5257   -2.2497   -0.1226 Cl  0  0  0  0  0  0  0  0  0  0  0  0
   -0.4365   -0.3936    0.4274 C   0  0  0  0  0  0  0  0  0  0  0  0
    0.7013    0.1543   -0.1167 C   0  0  0  0  0  0  0  0  0  0  0  0
    4.7449   -0.2209    0.5572 C   0  0  0  0  0  0  0  0  0  0  0  0
    5.3898    0.7846    0.2063 O   0  0  0  0  0  0  0  0  0  0  0  0
    4.6785   -1.3727   -0.1966 O   0  0  0  0  0  0  0  0  0  0  0  0
  2  1  1  6
  2  3  1  0
  3  4  1  0
  4  5  2  0
  5  6  1  0
  6  7  1  0
  7  8  2  0
  8  9  1  0
  9 10  2  0
 10 11  1  0
 11 12  1  0
 12 13  1  0
 13 14  1  0
 11 15  1  0
 15 16  1  0
 16 17  1  0
 10 18  1  0
 18 19  2  0
  2 20  1  0
 20 21  2  0
 20 22  1  0
 19  4  1  0
 19  7  1  0
M  END
>  <zinc_id>  (19) 
ZINC000000000819

>  <smiles>  (19) 
N[C@@H](Cc1c[nH]c2ccc(N(CCCl)CCCl)cc12)C(=O)O

$$$$

     RDKit          3D

 18 19  0  0  0  0  0  0  0  0999 V2000
    1.2753    1.6279    0.1688 O   0  0  0  0  0  0  0  0  0  0  0  0
    1.7266    0.5132   -0.1274 C   0  0  0  0  0  0  0  0  0  0  0  0
    0.8851   -0.5896   -0.4054 N   0  0  0  0  0  0  0  0  0  0  0  0
   -0.4976   -0.4209   -0.3453 N   0  0  0  0  0  0  0  0  0  0  0  0
   -1.2525   -0.8504    0.5810 C   0  0  0  0  0  0  0  0  0  0  0  0
   -2.6907   -0.6291    0.5648 C   0  0  0  0  0  0  0  0  0  0  0  0
   -3.5391   -1.0792    1.5500 C   0  0  0  0  0  0  0  0  0  0  0  0
   -4.9160   -0.8358    1.4806 C   0  0  0  0  0  0  0  0  0  0  0  0
   -5.4137   -0.1386    0.4116 C   0  0  0  0  0  0  0  0  0  0  0  0
   -4.5896    0.3234   -0.5879 C   0  0  0  0  0  0  0  0  0  0  0  0
   -5.1024    1.0278   -1.6655 O   0  0  0  0  0  0  0  0  0  0  0  0
   -3.2410    0.0669   -0.4888 C   0  0  0  0  0  0  0  0  0  0  0  0
    3.1818    0.3354   -0.1907 C   0  0  0  0  0  0  0  0  0  0  0  0
    3.7265   -0.8950   -0.5182 C   0  0  0  0  0  0  0  0  0  0  0  0
    5.0946   -1.0332   -0.5702 C   0  0  0  0  0  0  0  0  0  0  0  0
    5.9164   -0.0027   -0.3107 N   0  0  0  0  0  0  0  0  0  0  0  0
    5.4004    1.1969    0.0084 C   0  0  0  0  0  0  0  0  0  0  0  0
    4.0358    1.3830    0.0728 C   0  0  0  0  0  0  0  0  0  0  0  0
  1  2  2  0
  2  3  1  0
  3  4  1  0
  4  5  2  0
  5  6  1  0
  6  7  2  0
  7  8  1  0
  8  9  2  0
  9 10  1  0
 10 11  1  0
 10 12  2  0
  2 13  1  0
 13 14  2  0
 14 15  1  0
 15 16  2  0
 16 17  1  0
 17 18  2  0
 12  6  1  0
 18 13  1  0
M  END
>  <zinc_id>  (20) 
ZINC000000000879

>  <smiles>  (20) 
O=C(N/N=C/c1cccc(O)c1)c1ccncc1

$$$$

     RDKit          3D

 17 17  0  0  0  0  0  0  0  0999 V2000
    4.9900   -0.9490   -0.4214 C   0  0  0  0  0  0  0  0  0  0  0  0
    4.2585    0.1133   -1.0767 N   0  0  0  0  0  0  0  0  0  0  0  0
    5.0763    1.3384   -1.1279 C   0  0  0  0  0  0  0  0  0  0  0  0
    3.0875    0.4179   -0.3360 N   0  0  0  0  0  0  0  0  0  0  0  0
    1.8255   -0.1012   -0.8081 C   0  0  0  0  0  0  0  0  0  0  0  0
    1.8629   -0.7915   -1.8456 O   0  0  0  0  0  0  0  0  0  0  0  0
    0.6027    0.2090   -0.0621 C   0  0  0  0  0  0  0  0  0  0  0  0
    0.6058    1.1184    0.9678 C   0  0  0  0  0  0  0  0  0  0  0  0
   -0.5536    1.3970    1.6520 C   0  0  0  0  0  0  0  0  0  0  0  0
   -1.7407    0.7764    1.3271 C   0  0  0  0  0  0  0  0  0  0  0  0
   -3.2546    1.0667    2.1500 Cl  0  0  0  0  0  0  0  0  0  0  0  0
   -1.7383   -0.1340    0.2954 C   0  0  0  0  0  0  0  0  0  0  0  0
   -3.2267   -0.9263   -0.1487 S   0  0  0  0  0  0  0  0  0  0  0  0
   -4.3042    0.3533   -0.6743 N   0  0  0  0  0  0  0  0  0  0  0  0
   -3.8751   -1.5381    1.0909 O   0  0  0  0  0  0  0  0  0  0  0  0
   -3.0391   -1.9397   -1.2233 O   0  0  0  0  0  0  0  0  0  0  0  0
   -0.5768   -0.4108   -0.3888 C   0  0  0  0  0  0  0  0  0  0  0  0
  1  2  1  0
  2  3  1  0
  2  4  1  0
  4  5  1  0
  5  6  2  0
  5  7  1  0
  7  8  2  0
  8  9  1  0
  9 10  2  0
 10 11  1  0
 10 12  1  0
 12 13  1  0
 13 14  1  0
 13 15  2  0
 13 16  2  0
 12 17  2  0
 17  7  1  0
M  END
>  <zinc_id>  (21) 
ZINC000000000892

>  <smiles>  (21) 
CN(C)NC(=O)c1ccc(Cl)c(S(N)(=O)=O)c1

$$$$

     RDKit          3D

 17 17  0  0  0  0  0  0  0  0999 V2000
    0.6023   -2.7672   -1.0583 C   0  0  0  0  0  0  0  0  0  0  0  0
   -0.3283   -1.7260   -0.6100 C   0  0  0  0  0  0  0  0  0  0  0  0
   -1.7019   -1.9869   -0.4877 C   0  0  0  0  0  0  0  0  0  0  0  0
   -2.5485   -0.9786   -0.0641 C   0  0  0  0  0  0  0  0  0  0  0  0
   -2.0951    0.2624    0.2393 C   0  0  0  0  0  0  0  0  0  0  0  0
   -2.9452    1.3526    0.6949 C   0  0  0  0  0  0  0  0  0  0  0  0
   -2.4771    2.4741    0.9664 O   0  0  0  0  0  0  0  0  0  0  0  0
   -4.2971    1.1197    0.8246 O   0  0  0  0  0  0  0  0  0  0  0  0
   -0.7379    0.4891    0.1107 C   0  0  0  0  0  0  0  0  0  0  0  0
    0.1259   -0.4897   -0.3070 C   0  0  0  0  0  0  0  0  0  0  0  0
    1.5083   -0.1205   -0.3769 N   0  0  0  0  0  0  0  0  0  0  0  0
    2.5118   -0.4899    0.5826 C   0  0  0  0  0  0  0  0  0  0  0  0
    2.0074   -1.2357    1.7766 C   0  0  0  0  0  0  0  0  0  0  0  0
    3.3393   -1.6197    2.8938 Cl  0  0  0  0  0  0  0  0  0  0  0  0
    1.9032    0.6504   -1.5253 C   0  0  0  0  0  0  0  0  0  0  0  0
    2.3192    2.0659   -1.1171 C   0  0  0  0  0  0  0  0  0  0  0  0
    2.8138    3.0001   -2.5424 Cl  0  0  0  0  0  0  0  0  0  0  0  0
  1  2  1  0
  2  3  2  0
  3  4  1  0
  4  5  2  0
  5  6  1  0
  6  7  2  0
  6  8  1  0
  5  9  1  0
  9 10  2  0
 10 11  1  0
 11 12  1  0
 12 13  1  0
 13 14  1  0
 11 15  1  0
 15 16  1  0
 16 17  1  0
 10  2  1  0
M  END
>  <zinc_id>  (22) 
ZINC000000000893

>  <smiles>  (22) 
Cc1ccc(C(=O)O)cc1N(CCCl)CCCl

$$$$

     RDKit          3D

 11 11  0  0  0  0  0  0  0  0999 V2000
   -3.7125    0.6467    0.7841 O   0  0  0  0  0  0  0  0  0  0  0  0
   -3.2544   -0.4219    0.3026 C   0  0  0  0  0  0  0  0  0  0  0  0
   -1.8101   -0.5414    0.0318 C   0  0  0  0  0  0  0  0  0  0  0  0
   -1.0707   -2.1383   -0.6976 Br  0  0  0  0  0  0  0  0  0  0  0  0
   -1.0025    0.4650    0.2922 C   0  0  0  0  0  0  0  0  0  0  0  0
    0.4207    0.3700    0.0338 C   0  0  0  0  0  0  0  0  0  0  0  0
    1.2745    0.9744    0.9281 C   0  0  0  0  0  0  0  0  0  0  0  0
    2.6342    0.9428    0.7734 C   0  0  0  0  0  0  0  0  0  0  0  0
    3.2086    0.2924   -0.3029 C   0  0  0  0  0  0  0  0  0  0  0  0
    2.3370   -0.3109   -1.1937 C   0  0  0  0  0  0  0  0  0  0  0  0
    0.9753   -0.2790   -1.0388 C   0  0  0  0  0  0  0  0  0  0  0  0
  1  2  2  0
  2  3  1  0
  3  4  1  0
  3  5  2  0
  5  6  1  0
  6  7  2  0
  7  8  1  0
  8  9  2  0
  9 10  1  0
 10 11  2  0
 11  6  1  0
M  END
>  <zinc_id>  (23) 
ZINC000000000900

>  <smiles>  (23) 
O=C/C(Br)=C/c1ccccc1

$$$$

     RDKit          3D

 13 13  0  0  0  0  0  0  0  0999 V2000
    2.0983    3.4938   -0.9570 Cl  0  0  0  0  0  0  0  0  0  0  0  0
    1.6706    1.7740   -0.8045 C   0  0  0  0  0  0  0  0  0  0  0  0
    0.9170    1.5560    0.4908 C   0  0  0  0  0  0  0  0  0  0  0  0
    0.5437    0.1672    0.6618 N   0  0  0  0  0  0  0  0  0  0  0  0
    1.6075   -0.7835    0.8876 C   0  0  0  0  0  0  0  0  0  0  0  0
    2.4494   -0.9181   -0.3557 C   0  0  0  0  0  0  0  0  0  0  0  0
    3.7744   -2.0726   -0.1261 Cl  0  0  0  0  0  0  0  0  0  0  0  0
   -0.8153   -0.2117    0.6062 C   0  0  0  0  0  0  0  0  0  0  0  0
   -1.2307   -1.5241    0.7564 C   0  0  0  0  0  0  0  0  0  0  0  0
   -2.5764   -1.8154    0.6912 C   0  0  0  0  0  0  0  0  0  0  0  0
   -3.5340   -0.8577    0.4829 C   0  0  0  0  0  0  0  0  0  0  0  0
   -3.1242    0.4477    0.3334 C   0  0  0  0  0  0  0  0  0  0  0  0
   -1.7803    0.7442    0.3974 C   0  0  0  0  0  0  0  0  0  0  0  0
  1  2  1  0
  2  3  1  0
  3  4  1  0
  4  5  1  0
  5  6  1  0
  6  7  1  0
  4  8  1  0
  8  9  2  0
  9 10  1  0
 10 11  2  0
 11 12  1  0
 12 13  2  0
 13  8  1  0
M  END
>  <zinc_id>  (24) 
ZINC000000000951

>  <smiles>  (24) 
ClCCN(CCCl)c1ccccc1

$$$$

     RDKit          2D

 20 23  0  0  0  0  0  0  0  0999 V2000
    1.9033   -3.6288    0.0000 C   0  0  0  0  0  0  0  0  0  0  0  0
    0.7339   -2.6894    0.0000 C   0  0  0  0  0  0  0  0  0  0  0  0
   -0.6643   -3.2324    0.0000 C   0  0  0  0  0  0  0  0  0  0  0  0
   -1.8337   -2.2930    0.0000 C   0  0  0  0  0  0  0  0  0  0  0  0
   -1.6049   -0.8105    0.0000 C   0  0  0  0  0  0  0  0  0  0  0  0
   -2.7743    0.1289    0.0000 C   0  0  0  0  0  0  0  0  0  0  0  0
   -4.1725   -0.4141    0.0000 C   0  0  0  0  0  0  0  0  0  0  0  0
   -2.5454    1.6113    0.0000 C   0  0  0  0  0  0  0  0  0  0  0  0
   -3.7148    2.5507    0.0000 O   0  0  0  0  0  0  0  0  0  0  0  0
   -1.1471    2.1543    0.0000 O   0  0  0  0  0  0  0  0  0  0  0  0
    0.0223    1.2149    0.0000 C   0  0  0  0  0  0  0  0  0  0  0  0
    1.4919    0.9148    0.0000 O   0  0  0  0  0  0  0  0  0  0  0  0
    2.4360    1.8245    0.0000 C   0  0  0  0  0  0  0  0  0  0  0  0
    3.3755    2.9939    0.0000 C   0  0  0  0  0  0  0  0  0  0  0  0
    3.0820    0.4707    0.0000 C   0  0  0  0  0  0  0  0  0  0  0  0
    2.4264   -0.8784    0.0000 C   0  0  0  0  0  0  0  0  0  0  0  0
    0.9628   -1.2069    0.0000 C   0  0  0  0  0  0  0  0  0  0  0  0
   -0.2066   -0.2675    0.0000 C   0  0  0  0  0  0  0  0  0  0  0  0
    1.0171    0.7012    0.0000 O   0  0  0  0  0  0  0  0  0  0  0  0
    1.2123    0.8558    0.0000 O   0  0  0  0  0  0  0  0  0  0  0  0
  2  1  1  1
  2  3  1  0
  3  4  1  0
  5  4  1  6
  5  6  1  0
  6  7  1  6
  6  8  1  0
  8  9  2  0
  8 10  1  0
 11 10  1  6
 11 12  1  0
 12 13  1  0
 13 14  1  6
 13 15  1  0
 15 16  1  0
 17 16  1  1
 17 18  1  0
 18 19  1  1
 19 20  1  0
 17  2  1  0
 18  5  1  0
 18 11  1  0
 20 13  1  0
M  END
>  <zinc_id>  (25) 
ZINC000000000970

>  <smiles>  (25) 
C[C@H]1CC[C@@H]2[C@H](C)C(=O)O[C@@H]3O[C@]4(C)CC[C@@H]1[C@@]32OO4

$$$$

     RDKit          3D

 13 13  0  0  0  0  0  0  0  0999 V2000
    4.3586   -0.2064    2.1468 C   0  0  0  0  0  0  0  0  0  0  0  0
    3.0669    0.0970    1.4802 C   0  0  0  0  0  0  0  0  0  0  0  0
    2.9811    0.6550    0.3654 O   0  0  0  0  0  0  0  0  0  0  0  0
    1.8537   -0.2580    2.1290 N   0  0  0  0  0  0  0  0  0  0  0  0
    0.6441    0.0270    1.5047 N   0  0  0  0  0  0  0  0  0  0  0  0
    0.1902   -0.4608    0.2821 C   0  0  0  0  0  0  0  0  0  0  0  0
    0.9371   -1.2491   -0.3496 O   0  0  0  0  0  0  0  0  0  0  0  0
   -1.0900   -0.1307   -0.3321 C   0  0  0  0  0  0  0  0  0  0  0  0
   -1.5145   -0.6006   -1.5405 C   0  0  0  0  0  0  0  0  0  0  0  0
   -2.7383   -0.2490   -2.0635 C   0  0  0  0  0  0  0  0  0  0  0  0
   -3.6059    0.6080   -1.3805 C   0  0  0  0  0  0  0  0  0  0  0  0
   -3.1380    1.0624   -0.1590 C   0  0  0  0  0  0  0  0  0  0  0  0
   -1.9449    0.7052    0.3260 N   0  0  0  0  0  0  0  0  0  0  0  0
  1  2  1  0
  2  3  2  0
  2  4  1  0
  4  5  1  0
  5  6  1  0
  6  7  2  0
  6  8  1  0
  8  9  2  0
  9 10  1  0
 10 11  2  0
 11 12  1  0
 12 13  2  0
 13  8  1  0
M  END
>  <zinc_id>  (26) 
ZINC000000000980

>  <smiles>  (26) 
CC(=O)NNC(=O)c1ccccn1

$$$$

     RDKit          3D

 18 19  0  0  0  0  0  0  0  0999 V2000
   -1.8332    0.6318   -1.3044 C   0  0  0  0  0  0  0  0  0  0  0  0
   -1.6528   -0.5898   -0.3949 C   0  0  0  0  0  0  0  0  0  0  0  0
   -2.6453   -0.9344    0.4925 C   0  0  0  0  0  0  0  0  0  0  0  0
   -3.9667   -0.2255    0.7042 C   0  0  0  0  0  0  0  0  0  0  0  0
   -3.5968    1.0316    1.5061 C   0  0  0  0  0  0  0  0  0  0  0  0
   -5.0164    2.0234    1.8687 Cl  0  0  0  0  0  0  0  0  0  0  0  0
   -2.0135   -2.3141    1.2581 S   0  0  0  0  0  0  0  0  0  0  0  0
   -0.5364   -2.3892    0.4268 C   0  0  0  0  0  0  0  0  0  0  0  0
   -0.5776   -1.3626   -0.4024 N   0  0  0  0  0  0  0  0  0  0  0  0
    0.5469   -1.0695   -1.3342 C   0  0  0  0  0  0  0  0  0  0  0  0
    1.5247   -0.1454   -0.7417 C   0  0  0  0  0  0  0  0  0  0  0  0
    1.4726    1.2073   -1.0591 C   0  0  0  0  0  0  0  0  0  0  0  0
    2.3382    2.0520   -0.5027 N   0  0  0  0  0  0  0  0  0  0  0  0
    3.2883    1.6444    0.3788 C   0  0  0  0  0  0  0  0  0  0  0  0
    4.2508    2.5729    1.0038 C   0  0  0  0  0  0  0  0  0  0  0  0
    3.3618    0.3452    0.7032 N   0  0  0  0  0  0  0  0  0  0  0  0
    2.4824   -0.5475    0.1439 C   0  0  0  0  0  0  0  0  0  0  0  0
    2.5730   -1.9304    0.4734 N   0  0  0  0  0  0  0  0  0  0  0  0
  1  2  1  0
  2  3  2  0
  3  4  1  0
  4  5  1  0
  5  6  1  0
  3  7  1  0
  7  8  1  0
  8  9  2  0
  9 10  1  0
 10 11  1  0
 11 12  2  0
 12 13  1  0
 13 14  2  0
 14 15  1  0
 14 16  1  0
 16 17  2  0
 17 18  1  0
  9  2  1  0
 17 11  1  0
M  CHG  1   9   1
M  END
>  <zinc_id>  (27) 
ZINC000000000994

>  <smiles>  (27) 
Cc1ncc(C[n+]2csc(CCCl)c2C)c(N)n1

$$$$

     RDKit          3D

 16 17  0  0  0  0  0  0  0  0999 V2000
   -2.7964   -2.1559   -0.0047 C   0  0  0  0  0  0  0  0  0  0  0  0
   -1.8853   -1.0253   -0.0476 N   0  0  0  0  0  0  0  0  0  0  0  0
   -0.5703   -1.2393   -0.0133 C   0  0  0  0  0  0  0  0  0  0  0  0
    0.1756   -2.3496    0.0577 N   0  0  0  0  0  0  0  0  0  0  0  0
    1.4917   -2.0102    0.0632 C   0  0  0  0  0  0  0  0  0  0  0  0
    1.5754   -0.6839   -0.0044 N   0  0  0  0  0  0  0  0  0  0  0  0
    2.7806    0.0857   -0.0233 C   0  0  0  0  0  0  0  0  0  0  0  0
    3.2491    0.4730    1.3603 C   0  0  0  0  0  0  0  0  0  0  0  0
    4.7306    1.4185    1.3296 Cl  0  0  0  0  0  0  0  0  0  0  0  0
    0.3393   -0.1899   -0.0519 C   0  0  0  0  0  0  0  0  0  0  0  0
   -0.1766    1.0854   -0.1274 C   0  0  0  0  0  0  0  0  0  0  0  0
    0.5691    2.0722   -0.1657 O   0  0  0  0  0  0  0  0  0  0  0  0
   -1.5003    1.2500   -0.1593 N   0  0  0  0  0  0  0  0  0  0  0  0
   -2.0203    2.6027   -0.2389 C   0  0  0  0  0  0  0  0  0  0  0  0
   -2.3657    0.2162   -0.1207 C   0  0  0  0  0  0  0  0  0  0  0  0
   -3.5964    0.4505   -0.1546 O   0  0  0  0  0  0  0  0  0  0  0  0
  1  2  1  0
  2  3  1  0
  3  4  1  0
  4  5  2  0
  5  6  1  0
  6  7  1  0
  7  8  1  0
  8  9  1  0
  6 10  1  0
 10 11  1  0
 11 12  2  0
 11 13  1  0
 13 14  1  0
 13 15  1  0
 15 16  2  0
 15  2  1  0
 10  3  2  0
M  END
>  <zinc_id>  (28) 
ZINC000000000999

>  <smiles>  (28) 
Cn1c(=O)c2c(ncn2CCCl)n(C)c1=O

$$$$

     RDKit          3D

 18 19  0  0  0  0  0  0  0  0999 V2000
    1.0144   -1.2007   -0.6230 O   0  0  0  0  0  0  0  0  0  0  0  0
    1.5229   -0.1253   -0.2133 C   0  0  0  0  0  0  0  0  0  0  0  0
    0.6120    0.9144    0.0294 O   0  0  0  0  0  0  0  0  0  0  0  0
   -0.7180    0.7869   -0.1581 O   0  0  0  0  0  0  0  0  0  0  0  0
   -1.5384   -0.0687    0.5094 C   0  0  0  0  0  0  0  0  0  0  0  0
   -1.0466   -0.8227    1.3864 O   0  0  0  0  0  0  0  0  0  0  0  0
   -2.9576   -0.0914    0.1950 C   0  0  0  0  0  0  0  0  0  0  0  0
   -3.8327   -0.9510    0.8538 C   0  0  0  0  0  0  0  0  0  0  0  0
   -5.1510   -0.9098    0.4988 C   0  0  0  0  0  0  0  0  0  0  0  0
   -5.6662   -0.0697   -0.4706 C   0  0  0  0  0  0  0  0  0  0  0  0
   -4.7535    0.7744   -1.1047 C   0  0  0  0  0  0  0  0  0  0  0  0
   -3.4271    0.7622   -0.7771 C   0  0  0  0  0  0  0  0  0  0  0  0
    2.9497    0.0380   -0.0034 C   0  0  0  0  0  0  0  0  0  0  0  0
    3.5200    1.2076    0.4442 C   0  0  0  0  0  0  0  0  0  0  0  0
    4.8659    1.3805    0.6484 C   0  0  0  0  0  0  0  0  0  0  0  0
    5.6865    0.2937    0.3803 C   0  0  0  0  0  0  0  0  0  0  0  0
    5.1371   -0.8911   -0.0700 C   0  0  0  0  0  0  0  0  0  0  0  0
    3.7826   -1.0275   -0.2631 C   0  0  0  0  0  0  0  0  0  0  0  0
  1  2  2  0
  2  3  1  0
  3  4  1  0
  4  5  1  0
  5  6  2  0
  5  7  1  0
  7  8  2  0
  8  9  1  0
  9 10  2  0
 10 11  1  0
 11 12  2  0
  2 13  1  0
 13 14  2  0
 14 15  1  0
 15 16  2  0
 16 17  1  0
 17 18  2  0
 12  7  1  0
 18 13  1  0
M  END
>  <zinc_id>  (29) 
ZINC000000001016

>  <smiles>  (29) 
O=C(OOC(=O)c1ccccc1)c1ccccc1

$$$$

     RDKit          3D

 12 12  0  0  0  0  0  0  0  0999 V2000
   -5.0266    0.6675    0.2429 S   0  0  0  0  0  0  0  0  0  0  0  0
   -3.6202    0.3935   -0.4998 C   0  0  0  0  0  0  0  0  0  0  0  0
   -2.5629    0.6104   -1.2059 N   0  0  0  0  0  0  0  0  0  0  0  0
   -1.2670    0.5922   -0.6149 C   0  0  0  0  0  0  0  0  0  0  0  0
   -0.7359    1.6671    0.0697 C   0  0  0  0  0  0  0  0  0  0  0  0
    0.5303    1.5804    0.6191 C   0  0  0  0  0  0  0  0  0  0  0  0
    1.3188    0.4532    0.5225 C   0  0  0  0  0  0  0  0  0  0  0  0
    2.6041    0.4479    1.1140 N   0  0  0  0  0  0  0  0  0  0  0  0
    3.5331   -0.3069    0.6346 C   0  0  0  0  0  0  0  0  0  0  0  0
    4.9263   -0.8063   -0.0059 S   0  0  0  0  0  0  0  0  0  0  0  0
    0.7811   -0.6153   -0.1624 C   0  0  0  0  0  0  0  0  0  0  0  0
   -0.4810   -0.5379   -0.7137 C   0  0  0  0  0  0  0  0  0  0  0  0
  1  2  2  0
  2  3  2  3
  3  4  1  0
  4  5  2  0
  5  6  1  0
  6  7  2  0
  7  8  1  0
  8  9  2  3
  9 10  2  0
  7 11  1  0
 11 12  2  0
 12  4  1  0
M  END
>  <zinc_id>  (30) 
ZINC000000001035

>  <smiles>  (30) 
S=C=Nc1ccc(N=C=S)cc1

$$$$

     RDKit          3D

 18 18  0  0  0  0  0  0  0  0999 V2000
   -3.4803    2.8279    0.7365 C   0  0  0  0  0  0  0  0  0  0  0  0
   -3.6978    1.3687    0.4221 C   0  0  0  0  0  0  0  0  0  0  0  0
   -2.4459    0.7957    0.1553 O   0  0  0  0  0  0  0  0  0  0  0  0
   -2.5762   -0.8492   -0.2156 P   0  0  0  0  0  0  0  0  0  0  0  0
   -1.9413   -1.2002   -1.7818 S   0  0  0  0  0  0  0  0  0  0  0  0
   -4.1815   -1.3428   -0.1313 O   0  0  0  0  0  0  0  0  0  0  0  0
   -4.4439   -1.7254    1.1869 C   0  0  0  0  0  0  0  0  0  0  0  0
   -5.8916   -2.1657    1.2365 C   0  0  0  0  0  0  0  0  0  0  0  0
   -1.3781   -1.8793    1.2199 S   0  0  0  0  0  0  0  0  0  0  0  0
    0.1668   -0.8988    1.3606 C   0  0  0  0  0  0  0  0  0  0  0  0
    0.9979   -1.0354   -0.2380 S   0  0  0  0  0  0  0  0  0  0  0  0
    2.5367   -0.0988   -0.2335 C   0  0  0  0  0  0  0  0  0  0  0  0
    3.3471   -0.0503   -1.3467 C   0  0  0  0  0  0  0  0  0  0  0  0
    4.5239    0.6688   -1.3481 C   0  0  0  0  0  0  0  0  0  0  0  0
    4.9466    1.3727   -0.2394 C   0  0  0  0  0  0  0  0  0  0  0  0
    6.4415    2.2921   -0.2254 Cl  0  0  0  0  0  0  0  0  0  0  0  0
    4.1279    1.3195    0.8747 C   0  0  0  0  0  0  0  0  0  0  0  0
    2.9483    0.6004    0.8807 C   0  0  0  0  0  0  0  0  0  0  0  0
  1  2  1  0
  2  3  1  0
  3  4  1  0
  4  5  2  0
  4  6  1  0
  6  7  1  0
  7  8  1  0
  4  9  1  0
  9 10  1  0
 10 11  1  0
 11 12  1  0
 12 13  2  0
 13 14  1  0
 14 15  2  0
 15 16  1  0
 15 17  1  0
 17 18  2  0
 18 12  1  0
M  END
>  <zinc_id>  (31) 
ZINC000000001092

>  <smiles>  (31) 
CCOP(=S)(OCC)SCSc1ccc(Cl)cc1

$$$$

     RDKit          3D

 20 20  0  0  0  0  0  0  0  0999 V2000
    4.8298    1.9295    0.4591 C   0  0  0  0  0  0  0  0  0  0  0  0
    4.7126    0.9715    0.1005 C   0  0  0  0  0  0  0  0  0  0  0  0
    5.7291    0.2600   -0.2312 O   0  0  0  0  0  0  0  0  0  0  0  0
    3.3929    0.3146   -0.0740 C   0  0  0  0  0  0  0  0  0  0  0  0
    2.2200    0.9795    0.2238 C   0  0  0  0  0  0  0  0  0  0  0  0
    0.9666    0.4005    0.0736 C   0  0  0  0  0  0  0  0  0  0  0  0
    0.9270   -0.8649   -0.3831 C   0  0  0  0  0  0  0  0  0  0  0  0
   -0.3839   -1.6601   -0.6493 C   0  0  1  0  0  0  0  0  0  0  0  0
    0.0173   -2.8830    0.1550 O   0  0  0  0  0  0  0  0  0  0  0  0
   -1.3039   -1.0010    0.6383 C   0  0  2  0  0  0  0  0  0  0  0  0
   -2.6171   -1.8818    0.3237 C   0  0  0  0  0  0  0  0  0  0  0  0
   -2.7785   -2.0274   -1.0144 O   0  0  0  0  0  0  0  0  0  0  0  0
   -1.7703    0.2537   -0.1269 N   0  0  0  0  0  0  0  0  0  0  0  0
   -3.1179    0.6736    0.0174 C   0  0  0  0  0  0  0  0  0  0  0  0
   -3.8595   -0.0337    0.7834 O   0  0  0  0  0  0  0  0  0  0  0  0
   -3.7459    1.8303   -0.6141 C   0  0  0  0  0  0  0  0  0  0  0  0
   -3.1035    3.3992   -0.0946 Cl  0  0  0  0  0  0  0  0  0  0  0  0
   -5.5083    1.8448   -0.3791 Cl  0  0  0  0  0  0  0  0  0  0  0  0
    2.0629   -1.5378   -0.6813 C   0  0  0  0  0  0  0  0  0  0  0  0
    3.3303   -0.9675   -0.5360 C   0  0  0  0  0  0  0  0  0  0  0  0
  1  2  1  0
  2  3  2  0
  2  4  1  0
  4  5  2  0
  5  6  1  0
  6  7  2  0
  7  8  1  0
  8  9  1  1
  8 10  1  0
 10 11  1  6
 11 12  1  0
 10 13  1  0
 13 14  1  0
 14 15  2  0
 14 16  1  0
 16 17  1  0
 16 18  1  0
  7 19  1  0
 19 20  2  0
 20  4  1  0
M  END
>  <zinc_id>  (32) 
ZINC000000001109

>  <smiles>  (32) 
CC(=O)c1ccc([C@@H](O)[C@H](CO)NC(=O)C(Cl)Cl)cc1

$$$$

     RDKit          3D

 19 19  0  0  0  0  0  0  0  0999 V2000
    5.6719   -1.0482   -1.6524 O   0  0  0  0  0  0  0  0  0  0  0  0
    5.7120   -0.5520   -0.5022 C   0  0  0  0  0  0  0  0  0  0  0  0
    6.6209    0.4443   -0.1848 O   0  0  0  0  0  0  0  0  0  0  0  0
    4.7746   -1.0358    0.5351 C   0  0  0  0  0  0  0  0  0  0  0  0
    3.3482   -0.6207    0.1556 C   0  0  0  0  0  0  0  0  0  0  0  0
    2.4125   -1.1210    1.2261 C   0  0  0  0  0  0  0  0  0  0  0  0
    1.0263   -0.6983    0.8340 C   0  0  0  0  0  0  0  0  0  0  0  0
    0.2236   -1.5047    0.0563 C   0  0  0  0  0  0  0  0  0  0  0  0
   -1.0443   -1.1273   -0.3100 C   0  0  0  0  0  0  0  0  0  0  0  0
   -1.5669    0.1151    0.1074 C   0  0  0  0  0  0  0  0  0  0  0  0
   -2.8695    0.4971   -0.2766 N   0  0  0  0  0  0  0  0  0  0  0  0
   -3.6883   -0.3850   -1.1212 C   0  0  0  0  0  0  0  0  0  0  0  0
   -4.8602   -0.9043   -0.2873 C   0  0  0  0  0  0  0  0  0  0  0  0
   -5.8494   -1.9651   -1.2964 Cl  0  0  0  0  0  0  0  0  0  0  0  0
   -3.4587    1.7277    0.1166 C   0  0  0  0  0  0  0  0  0  0  0  0
   -2.6635    2.6372    0.9638 C   0  0  0  0  0  0  0  0  0  0  0  0
   -3.5308    4.1184    1.3663 Cl  0  0  0  0  0  0  0  0  0  0  0  0
   -0.7615    0.9123    0.8809 C   0  0  0  0  0  0  0  0  0  0  0  0
    0.5030    0.5103    1.2326 C   0  0  0  0  0  0  0  0  0  0  0  0
  1  2  2  0
  2  3  1  0
  2  4  1  0
  4  5  1  0
  5  6  1  0
  6  7  1  0
  7  8  2  0
  8  9  1  0
  9 10  2  0
 10 11  1  0
 11 12  1  0
 12 13  1  0
 13 14  1  0
 11 15  1  0
 15 16  1  0
 16 17  1  0
 10 18  1  0
 18 19  2  0
 19  7  1  0
M  END
>  <zinc_id>  (33) 
ZINC000000001115

>  <smiles>  (33) 
O=C(O)CCCc1ccc(N(CCCl)CCCl)cc1

$$$$

     RDKit          3D

 18 18  0  0  0  0  0  0  0  0999 V2000
   -3.5248    0.5381    0.5172 O   0  0  0  0  0  0  0  0  0  0  0  0
   -2.4281   -0.1065    0.0832 C   0  0  0  0  0  0  0  0  0  0  0  0
   -2.7608   -1.3668   -0.5050 C   0  0  0  0  0  0  0  0  0  0  0  0
   -2.5268   -2.7970    0.4605 Cl  0  0  0  0  0  0  0  0  0  0  0  0
   -4.4279   -1.2612   -1.1914 Cl  0  0  0  0  0  0  0  0  0  0  0  0
   -1.2408    0.6064    0.2876 N   0  0  0  0  0  0  0  0  0  0  0  0
   -1.5978    1.9967    0.9537 C   0  0  0  0  0  0  0  0  0  0  0  0
   -1.9675    2.8421   -0.2063 C   0  0  0  0  0  0  0  0  0  0  0  0
   -2.3071    4.1478   -0.0622 O   0  0  0  0  0  0  0  0  0  0  0  0
   -0.0303    0.3389    0.0080 C   0  0  0  0  0  0  0  0  0  0  0  0
    1.2641   -0.1106    0.1186 C   0  0  0  0  0  0  0  0  0  0  0  0
    2.1810    0.7435    0.8468 C   0  0  0  0  0  0  0  0  0  0  0  0
    3.5263    0.5454    0.8654 C   0  0  0  0  0  0  0  0  0  0  0  0
    4.0496   -0.5424    0.1655 C   0  0  0  0  0  0  0  0  0  0  0  0
    5.8070   -0.7682    0.1823 Cl  0  0  0  0  0  0  0  0  0  0  0  0
    3.2405   -1.3635   -0.5113 C   0  0  0  0  0  0  0  0  0  0  0  0
    1.8626   -1.1662   -0.5504 C   0  0  0  0  0  0  0  0  0  0  0  0
    0.8807   -2.2764   -1.4623 Cl  0  0  0  0  0  0  0  0  0  0  0  0
  1  2  2  0
  2  3  1  0
  3  4  1  0
  3  5  1  0
  2  6  1  0
  6  7  1  0
  7  8  1  0
  8  9  1  0
  6 10  1  0
 10 11  1  0
 11 12  2  0
 12 13  1  0
 13 14  2  0
 14 15  1  0
 14 16  1  0
 16 17  2  0
 17 18  1  0
 17 11  1  0
M  END
>  <zinc_id>  (34) 
ZINC000000001117

>  <smiles>  (34) 
O=C(C(Cl)Cl)N(CCO)Cc1ccc(Cl)cc1Cl

$$$$

     RDKit          3D

 16 16  0  0  0  0  0  0  0  0999 V2000
   -0.8086    0.4509   -2.4369 C   0  0  0  0  0  0  0  0  0  0  0  0
   -1.2548    0.0254   -1.0832 C   0  0  0  0  0  0  0  0  0  0  0  0
   -2.5754   -0.0905   -0.7814 N   0  0  0  0  0  0  0  0  0  0  0  0
   -2.9159   -0.4740    0.4587 C   0  0  0  0  0  0  0  0  0  0  0  0
   -4.1210   -0.6054    0.8190 O   0  0  0  0  0  0  0  0  0  0  0  0
   -1.9889   -0.7472    1.4100 N   0  0  0  0  0  0  0  0  0  0  0  0
   -0.6773   -0.6397    1.1297 C   0  0  0  0  0  0  0  0  0  0  0  0
    0.2261   -0.8870    1.9917 O   0  0  0  0  0  0  0  0  0  0  0  0
   -0.2989   -0.2492   -0.1316 C   0  0  0  0  0  0  0  0  0  0  0  0
    1.0828   -0.1260   -0.5114 N   0  0  0  0  0  0  0  0  0  0  0  0
    1.8054    1.1220   -0.3566 C   0  0  0  0  0  0  0  0  0  0  0  0
    0.9125    2.2012    0.2168 C   0  0  0  0  0  0  0  0  0  0  0  0
    1.8881    3.6792    0.3598 Cl  0  0  0  0  0  0  0  0  0  0  0  0
    1.7874   -1.2570   -1.0616 C   0  0  0  0  0  0  0  0  0  0  0  0
    2.8568   -1.8245   -0.1724 C   0  0  0  0  0  0  0  0  0  0  0  0
    4.0817   -0.5780    0.1494 Cl  0  0  0  0  0  0  0  0  0  0  0  0
  1  2  1  0
  2  3  1  0
  3  4  1  0
  4  5  2  0
  4  6  1  0
  6  7  1  0
  7  8  2  0
  7  9  1  0
  9 10  1  0
 10 11  1  0
 11 12  1  0
 12 13  1  0
 10 14  1  0
 14 15  1  0
 15 16  1  0
  9  2  2  0
M  END
>  <zinc_id>  (35) 
ZINC000000001120

>  <smiles>  (35) 
Cc1[nH]c(=O)[nH]c(=O)c1N(CCCl)CCCl

$$$$

     RDKit          3D

 17 18  0  0  0  0  0  0  0  0999 V2000
    4.3675    2.4604   -0.5428 Cl  0  0  0  0  0  0  0  0  0  0  0  0
    2.8135    1.6537   -0.3132 C   0  0  0  0  0  0  0  0  0  0  0  0
    2.9291    0.3511    0.3854 C   0  0  0  0  0  0  0  0  0  0  0  0
    1.7322   -0.3742    0.6160 N   0  0  0  0  0  0  0  0  0  0  0  0
    1.8595   -1.6622    1.3151 C   0  0  0  0  0  0  0  0  0  0  0  0
    2.5783   -2.6616    0.4317 C   0  0  0  0  0  0  0  0  0  0  0  0
    4.2061   -2.0612    0.0294 Cl  0  0  0  0  0  0  0  0  0  0  0  0
    0.4546    0.0676    0.2151 C   0  0  0  0  0  0  0  0  0  0  0  0
    0.2146    1.2457   -0.4513 C   0  0  0  0  0  0  0  0  0  0  0  0
   -1.0618    1.6029   -0.8073 C   0  0  0  0  0  0  0  0  0  0  0  0
   -2.1734    0.8258   -0.5301 C   0  0  0  0  0  0  0  0  0  0  0  0
   -3.4526    1.1832   -0.8862 C   0  0  0  0  0  0  0  0  0  0  0  0
   -4.5447    0.3920   -0.5988 C   0  0  0  0  0  0  0  0  0  0  0  0
   -4.2987   -0.7910    0.0711 C   0  0  0  0  0  0  0  0  0  0  0  0
   -3.0289   -1.1365    0.4197 C   0  0  0  0  0  0  0  0  0  0  0  0
   -1.9332   -0.3677    0.1445 C   0  0  0  0  0  0  0  0  0  0  0  0
   -0.6619   -0.7280    0.5016 C   0  0  0  0  0  0  0  0  0  0  0  0
  1  2  1  0
  2  3  1  0
  3  4  1  0
  4  5  1  0
  5  6  1  0
  6  7  1  0
  4  8  1  0
  8  9  2  0
  9 10  1  0
 10 11  2  0
 11 12  1  0
 12 13  2  0
 13 14  1  0
 14 15  2  0
 15 16  1  0
 16 17  2  0
 17  8  1  0
 16 11  1  0
M  END
>  <zinc_id>  (36) 
ZINC000000001123

>  <smiles>  (36) 
ClCCN(CCCl)c1ccc2ccccc2c1

$$$$

     RDKit          3D

 21 22  0  0  0  0  0  0  0  0999 V2000
    6.2531   -0.1773    0.2196 O   0  0  0  0  0  0  0  0  0  0  0  0
    5.1985    0.5536    0.2086 C   0  0  0  0  0  0  0  0  0  0  0  0
    5.4324    1.9884    0.2687 C   0  0  0  0  0  0  0  0  0  0  0  0
    3.9526    2.9195    0.2499 Cl  0  0  0  0  0  0  0  0  0  0  0  0
    3.8904   -0.0501    0.1404 C   0  0  0  0  0  0  0  0  0  0  0  0
    2.7084    0.6373    0.1232 C   0  0  0  0  0  0  0  0  0  0  0  0
    1.4631    0.0633    0.0583 C   0  0  0  0  0  0  0  0  0  0  0  0
    1.3292   -1.3042    0.0042 C   0  0  0  0  0  0  0  0  0  0  0  0
    0.1334   -1.9691   -0.0623 O   0  0  0  0  0  0  0  0  0  0  0  0
   -1.0729   -1.3160   -0.0816 C   0  0  0  0  0  0  0  0  0  0  0  0
   -1.2119    0.0523   -0.0369 C   0  0  0  0  0  0  0  0  0  0  0  0
   -2.4582    0.6355   -0.0602 C   0  0  0  0  0  0  0  0  0  0  0  0
   -3.6271   -0.0943   -0.1283 C   0  0  0  0  0  0  0  0  0  0  0  0
   -4.9385    0.5515   -0.1516 C   0  0  0  0  0  0  0  0  0  0  0  0
   -5.9606   -0.1446   -0.2134 O   0  0  0  0  0  0  0  0  0  0  0  0
   -4.9935    2.0329   -0.0999 C   0  0  0  0  0  0  0  0  0  0  0  0
   -6.6425    2.6444   -0.1365 Cl  0  0  0  0  0  0  0  0  0  0  0  0
   -3.4859   -1.4660   -0.1730 C   0  0  0  0  0  0  0  0  0  0  0  0
   -2.2518   -2.0757   -0.1512 C   0  0  0  0  0  0  0  0  0  0  0  0
    2.5246   -2.0314    0.0204 C   0  0  0  0  0  0  0  0  0  0  0  0
    3.7571   -1.4500    0.0851 C   0  0  0  0  0  0  0  0  0  0  0  0
  1  2  2  0
  2  3  1  0
  3  4  1  0
  2  5  1  0
  5  6  2  0
  6  7  1  0
  7  8  2  0
  8  9  1  0
  9 10  1  0
 10 11  2  0
 11 12  1  0
 12 13  2  0
 13 14  1  0
 14 15  2  0
 14 16  1  0
 16 17  1  0
 13 18  1  0
 18 19  2  0
  8 20  1  0
 20 21  2  0
 21  5  1  0
 19 10  1  0
M  END
>  <zinc_id>  (37) 
ZINC000000001186

>  <smiles>  (37) 
O=C(CCl)c1ccc(Oc2ccc(C(=O)CCl)cc2)cc1

$$$$

     RDKit          3D

  9  9  0  0  0  0  0  0  0  0999 V2000
   -1.1061    1.9874   -0.2775 C   0  0  0  0  0  0  0  0  0  0  0  0
   -1.0319    0.5180    0.0833 C   0  0  0  0  0  0  0  0  0  0  0  0
   -2.0282   -0.2853   -0.1051 N   0  0  0  0  0  0  0  0  0  0  0  0
   -1.9543   -1.5444    0.2185 C   0  0  0  0  0  0  0  0  0  0  0  0
   -0.3549   -1.6541    0.8481 S   0  0  0  0  0  0  0  0  0  0  0  0
    0.0904   -0.0135    0.6318 C   0  0  0  0  0  0  0  0  0  0  0  0
    1.3784    0.6567    0.9484 C   0  0  0  0  0  0  0  0  0  0  0  0
    2.2553    0.8941   -0.2294 C   0  0  0  0  0  0  0  0  0  0  0  0
    2.7513   -0.5589   -1.0948 Cl  0  0  0  0  0  0  0  0  0  0  0  0
  1  2  1  0
  2  3  1  0
  3  4  2  0
  4  5  1  0
  5  6  1  0
  6  7  1  0
  7  8  1  0
  8  9  1  0
  6  2  2  0
M  END
>  <zinc_id>  (38) 
ZINC000000001192

>  <smiles>  (38) 
Cc1ncsc1CCCl

$$$$

     RDKit          3D

 17 17  0  0  0  0  0  0  0  0999 V2000
   -2.6491    3.0172   -0.4197 C   0  0  0  0  0  0  0  0  0  0  0  0
   -3.0225    1.5320   -0.0877 C   0  0  0  0  0  0  0  0  0  0  0  0
   -2.2265    1.4072    1.1333 O   0  0  0  0  0  0  0  0  0  0  0  0
   -1.3719   -0.0485    0.5485 P   0  0  0  0  0  0  0  0  0  0  0  0
   -0.4700   -0.6266    1.8050 S   0  0  0  0  0  0  0  0  0  0  0  0
   -2.3384   -1.0724   -0.2280 O   0  0  0  0  0  0  0  0  0  0  0  0
   -3.5156   -1.3959    0.4791 C   0  0  0  0  0  0  0  0  0  0  0  0
   -4.3132   -2.4039   -0.3215 C   0  0  0  0  0  0  0  0  0  0  0  0
   -0.3095    0.7598   -0.6547 O   0  0  0  0  0  0  0  0  0  0  0  0
    1.0428    0.4809   -0.4577 C   0  0  0  0  0  0  0  0  0  0  0  0
    1.8403    1.4532    0.1597 C   0  0  0  0  0  0  0  0  0  0  0  0
    3.1532    1.1639    0.3981 C   0  0  0  0  0  0  0  0  0  0  0  0
    3.6915   -0.0836    0.0516 C   0  0  0  0  0  0  0  0  0  0  0  0
    5.3345   -0.4613    0.5742 Cl  0  0  0  0  0  0  0  0  0  0  0  0
    2.9257   -1.0585   -0.5458 C   0  0  0  0  0  0  0  0  0  0  0  0
    1.5960   -0.7221   -0.7823 C   0  0  0  0  0  0  0  0  0  0  0  0
    0.6327   -1.9416   -1.6521 Cl  0  0  0  0  0  0  0  0  0  0  0  0
  1  2  1  0
  2  3  1  0
  3  4  1  0
  4  5  2  0
  4  6  1  0
  6  7  1  0
  7  8  1  0
  4  9  1  0
  9 10  1  0
 10 11  2  0
 11 12  1  0
 12 13  2  0
 13 14  1  0
 13 15  1  0
 15 16  2  0
 16 17  1  0
 16 10  1  0
M  END
>  <zinc_id>  (39) 
ZINC000000001277

>  <smiles>  (39) 
CCOP(=S)(OCC)Oc1ccc(Cl)cc1Cl

$$$$

     RDKit          3D

 14 14  0  0  0  0  0  0  0  0999 V2000
    1.5024    1.7972    0.0669 C   0  0  0  0  0  0  0  0  0  0  0  0
    0.9081    0.4723   -0.0216 N   0  0  0  0  0  0  0  0  0  0  0  0
    1.7189   -0.6514   -0.2697 C   0  0  0  0  0  0  0  0  0  0  0  0
    1.2592   -1.8127   -0.3565 O   0  0  0  0  0  0  0  0  0  0  0  0
    3.1834   -0.4886   -0.4403 C   0  0  0  0  0  0  0  0  0  0  0  0
    3.9917   -2.0327   -0.7381 Cl  0  0  0  0  0  0  0  0  0  0  0  0
    3.5648    0.5921   -1.7957 Cl  0  0  0  0  0  0  0  0  0  0  0  0
   -0.5024    0.4013    0.1536 C   0  0  0  0  0  0  0  0  0  0  0  0
   -1.0643   -0.0098    1.3429 C   0  0  0  0  0  0  0  0  0  0  0  0
   -2.4244   -0.0898    1.5478 C   0  0  0  0  0  0  0  0  0  0  0  0
   -3.3072    0.2486    0.5394 C   0  0  0  0  0  0  0  0  0  0  0  0
   -4.6839    0.1735    0.7297 O   0  0  0  0  0  0  0  0  0  0  0  0
   -2.7551    0.6612   -0.6549 C   0  0  0  0  0  0  0  0  0  0  0  0
   -1.3912    0.7389   -0.8527 C   0  0  0  0  0  0  0  0  0  0  0  0
  1  2  1  0
  2  3  1  0
  3  4  2  0
  3  5  1  0
  5  6  1  0
  5  7  1  0
  2  8  1  0
  8  9  2  0
  9 10  1  0
 10 11  2  0
 11 12  1  0
 11 13  1  0
 13 14  2  0
 14  8  1  0
M  END
>  <zinc_id>  (40) 
ZINC000000001299

>  <smiles>  (40) 
CN(C(=O)C(Cl)Cl)c1ccc(O)cc1

$$$$

     RDKit          3D

 21 22  0  0  0  0  0  0  0  0999 V2000
   -3.3830   -1.6517    1.6396 C   0  0  0  0  0  0  0  0  0  0  0  0
   -3.1692   -0.7617    0.5170 N   0  0  0  0  0  0  0  0  0  0  0  0
   -4.3064   -0.3028   -0.1922 C   0  0  0  0  0  0  0  0  0  0  0  0
   -4.1734    0.4738   -1.1770 O   0  0  0  0  0  0  0  0  0  0  0  0
   -5.6506   -0.7315    0.2185 C   0  0  0  0  0  0  0  0  0  0  0  0
   -6.0305   -0.2547    1.8842 Cl  0  0  0  0  0  0  0  0  0  0  0  0
   -5.8540   -2.4570   -0.0232 Cl  0  0  0  0  0  0  0  0  0  0  0  0
   -1.8516   -0.3673    0.1473 C   0  0  0  0  0  0  0  0  0  0  0  0
   -1.4147    0.9348    0.1376 C   0  0  0  0  0  0  0  0  0  0  0  0
   -0.1284    1.2749   -0.2284 C   0  0  0  0  0  0  0  0  0  0  0  0
    0.7282    0.2632   -0.5918 C   0  0  0  0  0  0  0  0  0  0  0  0
    2.0470    0.4908   -0.9788 O   0  0  0  0  0  0  0  0  0  0  0  0
    3.1107    0.5100   -0.1006 C   0  0  0  0  0  0  0  0  0  0  0  0
    2.8385    0.3060    1.1165 O   0  0  0  0  0  0  0  0  0  0  0  0
    4.4862    0.7482   -0.5106 C   0  0  0  0  0  0  0  0  0  0  0  0
    4.9398    0.9835   -1.7844 C   0  0  0  0  0  0  0  0  0  0  0  0
    6.3099    1.1557   -1.7207 C   0  0  0  0  0  0  0  0  0  0  0  0
    6.6287    1.0149   -0.3920 C   0  0  0  0  0  0  0  0  0  0  0  0
    5.5228    0.7788    0.2620 O   0  0  0  0  0  0  0  0  0  0  0  0
    0.3142   -1.0598   -0.5913 C   0  0  0  0  0  0  0  0  0  0  0  0
   -0.9642   -1.3480   -0.2226 C   0  0  0  0  0  0  0  0  0  0  0  0
  1  2  1  0
  2  3  1  0
  3  4  2  0
  3  5  1  0
  5  6  1  0
  5  7  1  0
  2  8  1  0
  8  9  2  0
  9 10  1  0
 10 11  2  0
 11 12  1  0
 12 13  1  0
 13 14  2  0
 13 15  1  0
 15 16  2  0
 16 17  1  0
 17 18  2  0
 18 19  1  0
 11 20  1  0
 20 21  2  0
 21  8  1  0
 19 15  1  0
M  END
>  <zinc_id>  (41) 
ZINC000000001300

>  <smiles>  (41) 
CN(C(=O)C(Cl)Cl)c1ccc(OC(=O)c2ccco2)cc1

$$$$

     RDKit          3D

 19 19  0  0  0  0  0  0  0  0999 V2000
   -4.7065    1.4030   -1.1343 C   0  0  0  0  0  0  0  0  0  0  0  0
   -3.2106    1.2561   -1.1710 C   0  0  0  0  0  0  0  0  0  0  0  0
   -2.6848    1.7720    0.1003 O   0  0  0  0  0  0  0  0  0  0  0  0
   -2.0764    0.2982    0.7491 P   0  0  0  0  0  0  0  0  0  0  0  0
   -1.4469    0.4320    2.2801 S   0  0  0  0  0  0  0  0  0  0  0  0
   -3.3732   -0.8360    0.5531 O   0  0  0  0  0  0  0  0  0  0  0  0
   -2.7522   -2.0969    0.7185 C   0  0  0  0  0  0  0  0  0  0  0  0
   -2.6896   -2.8015   -0.6191 C   0  0  0  0  0  0  0  0  0  0  0  0
   -0.8509   -0.2378   -0.3543 O   0  0  0  0  0  0  0  0  0  0  0  0
    0.4321    0.1697   -0.2208 C   0  0  0  0  0  0  0  0  0  0  0  0
    0.7528    1.5360   -0.1140 C   0  0  0  0  0  0  0  0  0  0  0  0
    2.0948    1.8796    0.0589 C   0  0  0  0  0  0  0  0  0  0  0  0
    2.4789    3.2889    0.0547 C   0  0  0  0  0  0  0  0  0  0  0  0
    3.0482    0.9455    0.0938 N   0  0  0  0  0  0  0  0  0  0  0  0
    2.7198   -0.3572   -0.0104 C   0  0  0  0  0  0  0  0  0  0  0  0
    3.7600   -1.4126    0.0482 C   0  0  0  0  0  0  0  0  0  0  0  0
    3.6721   -2.2356   -1.2211 C   0  0  0  0  0  0  0  0  0  0  0  0
    3.3866   -2.3221    1.2255 C   0  0  0  0  0  0  0  0  0  0  0  0
    1.4459   -0.6812   -0.1577 N   0  0  0  0  0  0  0  0  0  0  0  0
  1  2  1  0
  2  3  1  0
  3  4  1  0
  4  5  2  0
  4  6  1  0
  6  7  1  0
  7  8  1  0
  4  9  1  0
  9 10  1  0
 10 11  2  0
 11 12  1  0
 12 13  1  0
 12 14  2  0
 14 15  1  0
 15 16  1  0
 16 17  1  0
 16 18  1  0
 15 19  2  0
 19 10  1  0
M  END
>  <zinc_id>  (42) 
ZINC000000001309

>  <smiles>  (42) 
CCOP(=S)(OCC)Oc1cc(C)nc(C(C)C)n1

$$$$

     RDKit          3D

 21 22  0  0  0  0  0  0  0  0999 V2000
    4.5070    1.8916   -0.6706 C   0  0  0  0  0  0  0  0  0  0  0  0
    4.4318    1.2183    0.6863 C   0  0  0  0  0  0  0  0  0  0  0  0
    3.4400    0.2096    0.6642 O   0  0  0  0  0  0  0  0  0  0  0  0
    2.1105    0.6196    0.3694 C   0  0  0  0  0  0  0  0  0  0  0  0
    1.9049    1.8140    0.1533 O   0  0  0  0  0  0  0  0  0  0  0  0
    1.0622   -0.3871    0.3373 C   0  0  0  0  0  0  0  0  0  0  0  0
    1.4797   -1.7648    0.6822 C   0  0  0  0  0  0  0  0  0  0  0  0
    1.8434   -2.8438    0.9720 N   0  0  0  0  0  0  0  0  0  0  0  0
   -0.1748   -0.1787    0.0667 C   0  0  0  0  0  0  0  0  0  0  0  0
   -1.1246   -1.3307    0.0834 C   0  0  0  0  0  0  0  0  0  0  0  0
   -0.8327   -2.4958   -0.5057 C   0  0  0  0  0  0  0  0  0  0  0  0
   -1.6922   -3.5578   -0.4970 C   0  0  0  0  0  0  0  0  0  0  0  0
   -2.9017   -3.4349    0.1366 C   0  0  0  0  0  0  0  0  0  0  0  0
   -3.2181   -2.2493    0.7455 C   0  0  0  0  0  0  0  0  0  0  0  0
   -2.3461   -1.1829    0.7325 C   0  0  0  0  0  0  0  0  0  0  0  0
   -0.7362    1.0982   -0.3378 C   0  0  0  0  0  0  0  0  0  0  0  0
   -1.7748    1.5853    0.4430 C   0  0  0  0  0  0  0  0  0  0  0  0
   -2.4390    2.7429    0.1269 C   0  0  0  0  0  0  0  0  0  0  0  0
   -2.0895    3.4661   -0.9919 C   0  0  0  0  0  0  0  0  0  0  0  0
   -1.0628    2.9677   -1.7485 C   0  0  0  0  0  0  0  0  0  0  0  0
   -0.3871    1.8129   -1.4477 C   0  0  0  0  0  0  0  0  0  0  0  0
  1  2  1  0
  2  3  1  0
  3  4  1  0
  4  5  2  0
  4  6  1  0
  6  7  1  0
  7  8  3  0
  6  9  2  3
  9 10  1  0
 10 11  2  0
 11 12  1  0
 12 13  2  0
 13 14  1  0
 14 15  2  0
  9 16  1  0
 16 17  2  0
 17 18  1  0
 18 19  2  0
 19 20  1  0
 20 21  2  0
 15 10  1  0
 21 16  1  0
M  END
>  <zinc_id>  (43) 
ZINC000000001404

>  <smiles>  (43) 
CCOC(=O)C(C#N)=C(c1ccccc1)c1ccccc1

$$$$

     RDKit          3D

 17 17  0  0  0  0  0  0  0  0999 V2000
    3.3924    1.6428   -1.5856 C   0  0  0  0  0  0  0  0  0  0  0  0
    2.6778    1.2725   -0.4443 O   0  0  0  0  0  0  0  0  0  0  0  0
    2.9043   -0.3527   -0.0582 P   0  0  0  0  0  0  0  0  0  0  0  0
    4.3759   -0.9864   -0.6557 S   0  0  0  0  0  0  0  0  0  0  0  0
    2.9414   -0.5203    1.6423 O   0  0  0  0  0  0  0  0  0  0  0  0
    2.1668    0.5248    2.1442 C   0  0  0  0  0  0  0  0  0  0  0  0
    1.6186   -1.3283   -0.6803 O   0  0  0  0  0  0  0  0  0  0  0  0
    0.3292   -0.8226   -0.5328 C   0  0  0  0  0  0  0  0  0  0  0  0
   -0.2126   -0.0238   -1.5179 C   0  0  0  0  0  0  0  0  0  0  0  0
   -1.4863    0.4575   -1.3400 C   0  0  0  0  0  0  0  0  0  0  0  0
   -2.2566    0.1851   -0.2257 C   0  0  0  0  0  0  0  0  0  0  0  0
   -3.5758    0.6889   -0.0499 N   0  0  0  0  0  0  0  0  0  0  0  0
   -4.4299    0.0579    0.5654 O   0  0  0  0  0  0  0  0  0  0  0  0
   -3.9437    1.9154   -0.5699 O   0  0  0  0  0  0  0  0  0  0  0  0
   -1.6722   -0.6188    0.7339 C   0  0  0  0  0  0  0  0  0  0  0  0
   -2.4427   -0.9610    1.9731 C   0  0  0  0  0  0  0  0  0  0  0  0
   -0.3865   -1.1309    0.6013 C   0  0  0  0  0  0  0  0  0  0  0  0
  1  2  1  0
  2  3  1  0
  3  4  2  0
  3  5  1  0
  5  6  1  0
  3  7  1  0
  7  8  1  0
  8  9  2  0
  9 10  1  0
 10 11  2  0
 11 12  1  0
 12 13  2  0
 12 14  1  0
 11 15  1  0
 15 16  1  0
 15 17  2  0
 17  8  1  0
M  CHG  2  12   1  14  -1
M  END
>  <zinc_id>  (44) 
ZINC000000001434

>  <smiles>  (44) 
COP(=S)(OC)Oc1ccc([N+](=O)[O-])c(C)c1

$$$$

     RDKit          3D

 16 16  0  0  0  0  0  0  0  0999 V2000
   -4.4617   -0.4370    1.6230 C   0  0  0  0  0  0  0  0  0  0  0  0
   -3.0838   -0.4908    1.5255 O   0  0  0  0  0  0  0  0  0  0  0  0
   -2.6215   -0.5096   -0.0974 P   0  0  0  0  0  0  0  0  0  0  0  0
   -3.6839   -1.5017   -1.0449 S   0  0  0  0  0  0  0  0  0  0  0  0
   -2.5296    1.0626   -0.7161 O   0  0  0  0  0  0  0  0  0  0  0  0
   -3.5101    1.2825   -1.6821 C   0  0  0  0  0  0  0  0  0  0  0  0
   -1.0615   -1.2010   -0.1878 O   0  0  0  0  0  0  0  0  0  0  0  0
    0.0954   -0.4942    0.0830 C   0  0  0  0  0  0  0  0  0  0  0  0
    0.0858    0.8329    0.4499 C   0  0  0  0  0  0  0  0  0  0  0  0
    1.2922    1.4857    0.7089 C   0  0  0  0  0  0  0  0  0  0  0  0
    2.5062    0.8299    0.6060 C   0  0  0  0  0  0  0  0  0  0  0  0
    4.0623    1.6330    0.9293 S   0  0  0  0  0  0  0  0  0  0  0  0
    5.3880    0.4266    0.6813 C   0  0  0  0  0  0  0  0  0  0  0  0
    2.4702   -0.4952    0.2367 C   0  0  0  0  0  0  0  0  0  0  0  0
    3.7568   -1.2565    0.1093 C   0  0  0  0  0  0  0  0  0  0  0  0
    1.2951   -1.1672   -0.0256 C   0  0  0  0  0  0  0  0  0  0  0  0
  1  2  1  0
  2  3  1  0
  3  4  2  0
  3  5  1  0
  5  6  1  0
  3  7  1  0
  7  8  1  0
  8  9  2  0
  9 10  1  0
 10 11  2  0
 11 12  1  0
 12 13  1  0
 11 14  1  0
 14 15  1  0
 14 16  2  0
 16  8  1  0
M  END
>  <zinc_id>  (45) 
ZINC000000001443

>  <smiles>  (45) 
COP(=S)(OC)Oc1ccc(SC)c(C)c1

$$$$

     RDKit          3D

 16 16  0  0  0  0  0  0  0  0999 V2000
    0.9694    0.8740    2.5059 C   0  0  0  0  0  0  0  0  0  0  0  0
    1.4157    0.5469    1.1364 C   0  0  0  0  0  0  0  0  0  0  0  0
    2.6879    0.7305    0.7223 N   0  0  0  0  0  0  0  0  0  0  0  0
    3.0927    0.4338   -0.5129 C   0  0  0  0  0  0  0  0  0  0  0  0
    4.2952    0.6049   -0.9116 O   0  0  0  0  0  0  0  0  0  0  0  0
    2.1878   -0.0732   -1.3875 N   0  0  0  0  0  0  0  0  0  0  0  0
    0.9080   -0.2725   -1.0171 C   0  0  0  0  0  0  0  0  0  0  0  0
    0.0368   -0.7473   -1.8167 O   0  0  0  0  0  0  0  0  0  0  0  0
    0.4985    0.0352    0.2545 C   0  0  0  0  0  0  0  0  0  0  0  0
   -0.8942   -0.1938    0.6071 N   0  0  0  0  0  0  0  0  0  0  0  0
   -1.3329   -1.4276    1.1312 C   0  0  0  0  0  0  0  0  0  0  0  0
   -2.1702   -2.3497    0.4184 C   0  0  0  0  0  0  0  0  0  0  0  0
   -3.4031   -2.0580   -0.0013 F   0  0  0  0  0  0  0  0  0  0  0  0
   -1.7812    0.8986    0.3891 C   0  0  0  0  0  0  0  0  0  0  0  0
   -2.7611    0.7504   -0.7212 C   0  0  0  0  0  0  0  0  0  0  0  0
   -3.7493    2.2475   -0.7968 Cl  0  0  0  0  0  0  0  0  0  0  0  0
  1  2  1  0
  2  3  1  0
  3  4  1  0
  4  5  2  0
  4  6  1  0
  6  7  1  0
  7  8  2  0
  7  9  1  0
  9 10  1  0
 10 11  1  0
 11 12  1  0
 12 13  1  0
 10 14  1  0
 14 15  1  0
 15 16  1  0
  9  2  2  0
M  END
>  <zinc_id>  (46) 
ZINC000000001469

>  <smiles>  (46) 
Cc1[nH]c(=O)[nH]c(=O)c1N(CCF)CCCl

$$$$

     RDKit          3D

 25 28  0  0  0  0  0  0  0  0999 V2000
    5.0288    0.7793    0.7882 C   0  0  0  0  0  0  0  0  0  0  0  0
    3.7974    1.3823    0.2930 C   0  0  1  0  0  0  0  0  0  0  0  0
    3.5787    2.5804    0.8787 O   0  0  0  0  0  0  0  0  0  0  0  0
    4.0215    1.4733   -1.2213 C   0  0  0  0  0  0  0  0  0  0  0  0
    2.9635    0.5455   -1.8448 C   0  0  0  0  0  0  0  0  0  0  0  0
    1.8349    1.0190   -0.7728 C   0  0  1  0  0  0  0  0  0  0  0  0
    0.9116   -0.4328   -0.8759 C   0  0  2  0  0  0  0  0  0  0  0  0
    0.1685    0.0968   -2.1677 C   0  0  0  0  0  0  0  0  0  0  0  0
   -0.7529   -1.1378   -2.4139 C   0  0  0  0  0  0  0  0  0  0  0  0
   -1.7770   -0.8093   -1.3187 C   0  0  0  0  0  0  0  0  0  0  0  0
   -2.9689   -0.5350   -1.6324 C   0  0  0  0  0  0  0  0  0  0  0  0
   -4.0408   -0.1860   -0.7071 C   0  0  0  0  0  0  0  0  0  0  0  0
   -5.2137    0.0759   -1.0500 O   0  0  0  0  0  0  0  0  0  0  0  0
   -3.6285   -0.1649    0.6930 C   0  0  0  0  0  0  0  0  0  0  0  0
   -4.6020    0.1861    1.7580 C   0  0  0  0  0  0  0  0  0  0  0  0
   -4.1627    0.1786    2.9226 O   0  0  0  0  0  0  0  0  0  0  0  0
   -2.3891   -0.4631    0.9590 C   0  0  0  0  0  0  0  0  0  0  0  0
   -1.3206   -0.8352    0.0718 C   0  0  1  0  0  0  0  0  0  0  0  0
   -0.9461   -2.2218    0.5148 C   0  0  0  0  0  0  0  0  0  0  0  0
   -0.1712    0.2250    0.2339 C   0  0  1  0  0  0  0  0  0  0  0  0
    0.5551   -0.3038    1.6703 C   0  0  1  0  0  0  0  0  0  0  0  0
    1.2173   -1.5762    1.1931 O   0  0  0  0  0  0  0  0  0  0  0  0
    1.9050    0.6371    1.5632 C   0  0  0  0  0  0  0  0  0  0  0  0
    2.6967    0.3749    0.4425 C   0  0  2  0  0  0  0  0  0  0  0  0
    3.2945   -0.8882    0.0223 C   0  0  0  0  0  0  0  0  0  0  0  0
  2  1  1  1
  2  3  1  0
  2  4  1  0
  4  5  1  0
  6  5  1  6
  6  7  1  0
  7  8  1  6
  8  9  1  0
  9 10  1  0
 10 11  2  0
 11 12  1  0
 12 13  2  0
 12 14  1  0
 14 15  1  0
 15 16  2  0
 14 17  2  0
 17 18  1  0
 18 19  1  1
 18 20  1  0
 20 21  1  1
 21 22  1  6
 21 23  1  0
 23 24  1  0
 24 25  1  6
 24  2  1  0
 24  6  1  0
 20  7  1  0
 18 10  1  0
M  END
>  <zinc_id>  (47) 
ZINC000000001488

>  <smiles>  (47) 
C[C@]12C[C@H](O)[C@H]3[C@@H](CCC4=CC(=O)C(C=O)=C[C@@]43C)[C@@H]1CC[C@@]2(C)O

$$$$

     RDKit          3D

 19 20  0  0  0  0  0  0  0  0999 V2000
    4.6959   -2.0769    0.1919 N   0  0  0  0  0  0  0  0  0  0  0  0
    3.7155   -1.3237   -0.4679 N   0  0  0  0  0  0  0  0  0  0  0  0
    2.3499   -1.6390   -0.2521 C   0  0  0  0  0  0  0  0  0  0  0  0
    2.0837   -2.5864    0.5264 O   0  0  0  0  0  0  0  0  0  0  0  0
    1.3230   -0.8340   -0.9572 C   0  0  0  0  0  0  0  0  0  0  0  0
    0.1810   -0.1821    0.3035 P   0  0  0  0  0  0  0  0  0  0  0  0
    0.6410   -0.5440    1.6863 O   0  0  0  0  0  0  0  0  0  0  0  0
   -1.4173   -0.9178   -0.0238 C   0  0  0  0  0  0  0  0  0  0  0  0
   -2.5333   -0.4180    0.5939 C   0  0  0  0  0  0  0  0  0  0  0  0
   -3.7883   -0.9393    0.3870 C   0  0  0  0  0  0  0  0  0  0  0  0
   -3.8902   -2.0043   -0.4809 C   0  0  0  0  0  0  0  0  0  0  0  0
   -2.7946   -2.5314   -1.1180 C   0  0  0  0  0  0  0  0  0  0  0  0
   -1.5647   -1.9826   -0.8834 C   0  0  0  0  0  0  0  0  0  0  0  0
    0.1725    1.5868    0.1414 C   0  0  0  0  0  0  0  0  0  0  0  0
    0.6022    2.4181    1.1771 C   0  0  0  0  0  0  0  0  0  0  0  0
    0.5845    3.7896    1.0093 C   0  0  0  0  0  0  0  0  0  0  0  0
    0.1576    4.3932   -0.1461 C   0  0  0  0  0  0  0  0  0  0  0  0
   -0.2655    3.5803   -1.1664 C   0  0  0  0  0  0  0  0  0  0  0  0
   -0.2531    2.2116   -1.0138 C   0  0  0  0  0  0  0  0  0  0  0  0
  1  2  1  0
  2  3  1  0
  3  4  2  0
  3  5  1  0
  5  6  1  0
  6  7  2  0
  6  8  1  0
  8  9  2  0
  9 10  1  0
 10 11  2  0
 11 12  1  0
 12 13  2  0
  6 14  1  0
 14 15  2  0
 15 16  1  0
 16 17  2  0
 17 18  1  0
 18 19  2  0
 13  8  1  0
 19 14  1  0
M  END
>  <zinc_id>  (48) 
ZINC000000001489

>  <smiles>  (48) 
NNC(=O)CP(=O)(c1ccccc1)c1ccccc1

$$$$

     RDKit          3D

 17 18  0  0  0  0  0  0  0  0999 V2000
   -3.5386   -2.3088    0.4080 C   0  0  0  0  0  0  0  0  0  0  0  0
   -2.3780   -1.4405    0.0687 C   0  0  0  0  0  0  0  0  0  0  0  0
   -1.2314   -1.7497    0.5735 N   0  0  0  0  0  0  0  0  0  0  0  0
   -0.1436   -0.9325    0.2530 N   0  0  0  0  0  0  0  0  0  0  0  0
    0.9172   -0.7509    1.1616 C   0  0  0  0  0  0  0  0  0  0  0  0
    0.8649   -1.3410    2.2706 O   0  0  0  0  0  0  0  0  0  0  0  0
    2.0670    0.0932    0.8614 C   0  0  0  0  0  0  0  0  0  0  0  0
    3.0826    0.2477    1.7810 C   0  0  0  0  0  0  0  0  0  0  0  0
    4.1722    1.0534    1.4844 C   0  0  0  0  0  0  0  0  0  0  0  0
    4.2410    1.6767    0.3180 N   0  0  0  0  0  0  0  0  0  0  0  0
    3.2858    1.5730   -0.6302 C   0  0  0  0  0  0  0  0  0  0  0  0
    2.2031    0.7706   -0.3318 C   0  0  0  0  0  0  0  0  0  0  0  0
   -2.5616   -0.2891   -0.8052 C   0  0  0  0  0  0  0  0  0  0  0  0
   -1.5912    0.6041   -1.2092 C   0  0  0  0  0  0  0  0  0  0  0  0
   -2.1910    1.5518   -2.0389 C   0  0  0  0  0  0  0  0  0  0  0  0
   -3.5246    1.1579   -2.0837 C   0  0  0  0  0  0  0  0  0  0  0  0
   -3.6739    0.0841   -1.3476 O   0  0  0  0  0  0  0  0  0  0  0  0
  1  2  1  0
  2  3  2  0
  3  4  1  0
  4  5  1  0
  5  6  2  0
  5  7  1  0
  7  8  2  0
  8  9  1  0
  9 10  2  0
 10 11  1  0
 11 12  2  0
  2 13  1  0
 13 14  2  0
 14 15  1  0
 15 16  2  0
 16 17  1  0
 12  7  1  0
 17 13  1  0
M  END
>  <zinc_id>  (49) 
ZINC000000001498

>  <smiles>  (49) 
C/C(=N/NC(=O)c1ccncc1)c1ccco1

$$$$

     RDKit          3D

 16 16  0  0  0  0  0  0  0  0999 V2000
    4.6552    1.2499   -0.2816 C   0  0  0  0  0  0  0  0  0  0  0  0
    5.0800   -0.1763   -0.5411 C   0  0  0  0  0  0  0  0  0  0  0  0
    5.4827   -0.8852    0.7327 C   0  0  0  0  0  0  0  0  0  0  0  0
    3.9858   -0.9287   -1.1262 N   0  0  0  0  0  0  0  0  0  0  0  0
    2.8594   -0.9804   -0.3122 N   0  0  0  0  0  0  0  0  0  0  0  0
    1.6518   -0.4196   -0.8115 C   0  0  0  0  0  0  0  0  0  0  0  0
    1.6014    0.1074   -1.9538 O   0  0  0  0  0  0  0  0  0  0  0  0
    0.3928   -0.4251   -0.0176 C   0  0  0  0  0  0  0  0  0  0  0  0
   -0.6668    0.1787   -0.6874 O   0  0  0  0  0  0  0  0  0  0  0  0
   -1.9306    0.2653   -0.0914 C   0  0  0  0  0  0  0  0  0  0  0  0
   -2.1148   -0.2585    1.1737 C   0  0  0  0  0  0  0  0  0  0  0  0
   -3.3546   -0.1794    1.7724 C   0  0  0  0  0  0  0  0  0  0  0  0
   -4.4348    0.4129    1.1447 C   0  0  0  0  0  0  0  0  0  0  0  0
   -6.0209    0.5329    1.8713 Cl  0  0  0  0  0  0  0  0  0  0  0  0
   -4.2058    0.9231   -0.1180 C   0  0  0  0  0  0  0  0  0  0  0  0
   -2.9808    0.8650   -0.7540 C   0  0  0  0  0  0  0  0  0  0  0  0
  1  2  1  0
  2  3  1  0
  2  4  1  0
  4  5  1  0
  5  6  1  0
  6  7  2  0
  6  8  1  0
  8  9  1  0
  9 10  1  0
 10 11  2  0
 11 12  1  0
 12 13  2  0
 13 14  1  0
 13 15  1  0
 15 16  2  0
 16 10  1  0
M  END
>  <zinc_id>  (50) 
ZINC000000001577

>  <smiles>  (50) 
CC(C)NNC(=O)COc1ccc(Cl)cc1

$$$$

     RDKit          3D

 13 13  0  0  0  0  0  0  0  0999 V2000
    2.8988    0.2231    1.7391 C   0  0  0  0  0  0  0  0  0  0  0  0
    3.0197   -0.1258    0.2980 C   0  0  0  0  0  0  0  0  0  0  0  0
    4.3378   -0.7032   -0.1143 C   0  0  0  0  0  0  0  0  0  0  0  0
    2.5087    0.8821   -0.5885 N   0  0  0  0  0  0  0  0  0  0  0  0
    1.1401    1.0686   -0.2951 N   0  0  0  0  0  0  0  0  0  0  0  0
    0.2912   -0.0595   -0.4786 C   0  0  0  0  0  0  0  0  0  0  0  0
    0.8057   -1.1251   -0.8810 O   0  0  0  0  0  0  0  0  0  0  0  0
   -1.1383   -0.0308   -0.2220 C   0  0  0  0  0  0  0  0  0  0  0  0
   -1.7720    1.1096    0.2715 C   0  0  0  0  0  0  0  0  0  0  0  0
   -3.1307    1.0756    0.4962 C   0  0  0  0  0  0  0  0  0  0  0  0
   -3.8526   -0.0379    0.2473 N   0  0  0  0  0  0  0  0  0  0  0  0
   -3.2298   -1.1261   -0.2270 C   0  0  0  0  0  0  0  0  0  0  0  0
   -1.8784   -1.1506   -0.4697 C   0  0  0  0  0  0  0  0  0  0  0  0
  1  2  1  0
  2  3  1  0
  2  4  1  0
  4  5  1  0
  5  6  1  0
  6  7  2  0
  6  8  1  0
  8  9  2  0
  9 10  1  0
 10 11  2  0
 11 12  1  0
 12 13  2  0
 13  8  1  0
M  END
>  <zinc_id>  (51) 
ZINC000000001579

>  <smiles>  (51) 
CC(C)NNC(=O)c1ccncc1

$$$$

     RDKit          3D

 17 18  0  0  0  0  0  0  0  0999 V2000
    6.1579   -0.4578    0.7336 C   0  0  0  0  0  0  0  0  0  0  0  0
    4.8623   -0.1183    0.0554 C   0  0  0  0  0  0  0  0  0  0  0  0
    3.5790   -0.2235    0.5624 C   0  0  0  0  0  0  0  0  0  0  0  0
    2.7148    0.2040   -0.4262 C   0  0  0  0  0  0  0  0  0  0  0  0
    1.2509    0.2592   -0.3118 C   0  0  0  0  0  0  0  0  0  0  0  0
    0.6024    0.6761   -1.3057 O   0  0  0  0  0  0  0  0  0  0  0  0
    0.5958   -0.1382    0.8636 N   0  0  0  0  0  0  0  0  0  0  0  0
   -0.8004   -0.0779    0.9541 N   0  0  0  0  0  0  0  0  0  0  0  0
   -1.4327   -0.3045   -0.3341 C   0  0  0  0  0  0  0  0  0  0  0  0
   -2.8946   -0.2137   -0.1137 C   0  0  0  0  0  0  0  0  0  0  0  0
   -3.5643    0.9925   -0.2228 C   0  0  0  0  0  0  0  0  0  0  0  0
   -4.9273    1.0838   -0.0190 C   0  0  0  0  0  0  0  0  0  0  0  0
   -5.6624   -0.0289    0.3007 C   0  0  0  0  0  0  0  0  0  0  0  0
   -5.0238   -1.2366    0.4151 C   0  0  0  0  0  0  0  0  0  0  0  0
   -3.6684   -1.3013    0.2076 C   0  0  0  0  0  0  0  0  0  0  0  0
    3.4796    0.5406   -1.4602 N   0  0  0  0  0  0  0  0  0  0  0  0
    4.7311    0.3447   -1.1576 O   0  0  0  0  0  0  0  0  0  0  0  0
  1  2  1  0
  2  3  2  0
  3  4  1  0
  4  5  1  0
  5  6  2  0
  5  7  1  0
  7  8  1  0
  8  9  1  0
  9 10  1  0
 10 11  2  0
 11 12  1  0
 12 13  2  0
 13 14  1  0
 14 15  2  0
  4 16  2  0
 16 17  1  0
 17  2  1  0
 15 10  1  0
M  END
>  <zinc_id>  (52) 
ZINC000000001587

>  <smiles>  (52) 
Cc1cc(C(=O)NNCc2ccccc2)no1

$$$$

     RDKit          3D

 10 10  0  0  0  0  0  0  0  0999 V2000
    3.5833    0.6085    0.5664 N   0  0  0  0  0  0  0  0  0  0  0  0
    2.1971    0.8141    0.4621 N   0  0  0  0  0  0  0  0  0  0  0  0
    1.3151   -0.2722    0.2874 C   0  0  0  0  0  0  0  0  0  0  0  0
    1.8406   -1.4288    0.2310 O   0  0  0  0  0  0  0  0  0  0  0  0
   -0.1270   -0.1189    0.1736 C   0  0  0  0  0  0  0  0  0  0  0  0
   -0.9337   -1.2008    0.0057 C   0  0  0  0  0  0  0  0  0  0  0  0
   -2.2988   -1.0279   -0.0996 C   0  0  0  0  0  0  0  0  0  0  0  0
   -2.8319    0.2059   -0.0366 N   0  0  0  0  0  0  0  0  0  0  0  0
   -2.0569    1.2930    0.1290 C   0  0  0  0  0  0  0  0  0  0  0  0
   -0.6880    1.1270    0.2352 C   0  0  0  0  0  0  0  0  0  0  0  0
  1  2  1  0
  2  3  1  0
  3  4  2  0
  3  5  1  0
  5  6  2  0
  6  7  1  0
  7  8  2  0
  8  9  1  0
  9 10  2  0
 10  5  1  0
M  END
>  <zinc_id>  (53) 
ZINC000000001590

>  <smiles>  (53) 
NNC(=O)c1ccncc1

$$$$

     RDKit          3D

 12 12  0  0  0  0  0  0  0  0999 V2000
    0.3104    2.5477   -1.4573 Cl  0  0  0  0  0  0  0  0  0  0  0  0
    0.0938    1.4828   -0.1126 C   0  0  0  0  0  0  0  0  0  0  0  0
    1.2552    0.7665    0.3880 C   0  0  0  0  0  0  0  0  0  0  0  0
    2.6879    1.1950   -0.5991 Cl  0  0  0  0  0  0  0  0  0  0  0  0
    1.1676   -0.7296    0.4115 C   0  0  0  0  0  0  0  0  0  0  0  0
    1.1086   -1.4038    2.0416 Cl  0  0  0  0  0  0  0  0  0  0  0  0
    0.0572   -1.1699   -0.4699 C   0  0  0  0  0  0  0  0  0  0  0  0
    0.1989   -2.6703   -1.2611 Cl  0  0  0  0  0  0  0  0  0  0  0  0
   -1.2312   -0.5799   -0.2101 C   0  0  0  0  0  0  0  0  0  0  0  0
   -2.6794   -1.3840   -0.5511 Cl  0  0  0  0  0  0  0  0  0  0  0  0
   -1.2415    0.8738    0.0485 C   0  0  0  0  0  0  0  0  0  0  0  0
   -1.7274    1.0716    1.7717 Cl  0  0  0  0  0  0  0  0  0  0  0  0
  1  2  1  0
  2  3  1  0
  3  4  1  0
  3  5  1  0
  5  6  1  0
  5  7  1  0
  7  8  1  0
  7  9  1  0
  9 10  1  0
  9 11  1  0
 11 12  1  0
 11  2  1  0
M  END
>  <zinc_id>  (54) 
ZINC000000001621

>  <smiles>  (54) 
ClC1C(Cl)C(Cl)C(Cl)C(Cl)C1Cl

$$$$

     RDKit          3D

  9  8  0  0  0  0  0  0  0  0999 V2000
   -1.0550   -1.1620   -1.4533 O   0  0  0  0  0  0  0  0  0  0  0  0
    0.1086   -1.0857   -0.7338 C   0  0  0  0  0  0  0  0  0  0  0  0
    0.0515   -0.0767    0.3899 C   0  0  0  0  0  0  0  0  0  0  0  0
   -0.2200    1.3196   -0.1086 C   0  0  0  0  0  0  0  0  0  0  0  0
    0.7329    1.7844   -0.9817 O   0  0  0  0  0  0  0  0  0  0  0  0
   -1.0719   -0.4439    1.3328 C   0  0  0  0  0  0  0  0  0  0  0  0
   -2.6127   -0.4388    0.4536 Cl  0  0  0  0  0  0  0  0  0  0  0  0
    1.3770   -0.1449    1.1155 C   0  0  0  0  0  0  0  0  0  0  0  0
    2.6896    0.2481   -0.0144 Cl  0  0  0  0  0  0  0  0  0  0  0  0
  1  2  1  0
  2  3  1  0
  3  4  1  0
  4  5  1  0
  3  6  1  0
  6  7  1  0
  3  8  1  0
  8  9  1  0
M  END
>  <zinc_id>  (55) 
ZINC000000001633

>  <smiles>  (55) 
OCC(CO)(CCl)CCl

$$$$

     RDKit          3D

  8  7  0  0  0  0  0  0  0  0999 V2000
   -1.8345   -0.9482    0.6109 C   0  0  0  0  0  0  0  0  0  0  0  0
   -0.9046   -0.2396    0.0256 C   0  0  0  0  0  0  0  0  0  0  0  0
   -1.1986    0.5889   -1.0935 C   0  0  0  0  0  0  0  0  0  0  0  0
   -1.4534    1.2516   -2.0085 N   0  0  0  0  0  0  0  0  0  0  0  0
    0.4403   -0.3114    0.5379 C   0  0  0  0  0  0  0  0  0  0  0  0
    0.6849   -1.0428    1.5211 O   0  0  0  0  0  0  0  0  0  0  0  0
    1.4891    0.4167   -0.0342 O   0  0  0  0  0  0  0  0  0  0  0  0
    2.7769    0.2849    0.5344 C   0  0  0  0  0  0  0  0  0  0  0  0
  1  2  2  0
  2  3  1  0
  3  4  3  0
  2  5  1  0
  5  6  2  0
  5  7  1  0
  7  8  1  0
M  END
>  <zinc_id>  (56) 
ZINC000000001657

>  <smiles>  (56) 
C=C(C#N)C(=O)OC

$$$$

     RDKit          3D

 19 19  0  0  0  0  0  0  0  0999 V2000
    2.9996   -0.6757    1.5111 N   0  0  0  0  0  0  0  0  0  0  0  0
    3.5955    0.5861    0.7501 C   0  0  2  0  0  0  0  0  0  0  0  0
    3.0069    0.0583   -0.7360 C   0  0  0  0  0  0  0  0  0  0  0  0
    1.5347   -0.0075   -0.5187 C   0  0  0  0  0  0  0  0  0  0  0  0
    0.8986   -1.1351   -0.0454 C   0  0  0  0  0  0  0  0  0  0  0  0
   -0.4739   -1.1479    0.1410 C   0  0  0  0  0  0  0  0  0  0  0  0
   -1.1892    0.0076   -0.1635 C   0  0  0  0  0  0  0  0  0  0  0  0
   -2.5894    0.0258    0.0205 N   0  0  0  0  0  0  0  0  0  0  0  0
   -3.3464    1.2145   -0.3185 C   0  0  0  0  0  0  0  0  0  0  0  0
   -3.8882    1.8506    0.9311 C   0  0  0  0  0  0  0  0  0  0  0  0
   -4.8242    3.3188    0.5109 Cl  0  0  0  0  0  0  0  0  0  0  0  0
   -3.2754   -1.1308    0.5473 C   0  0  0  0  0  0  0  0  0  0  0  0
   -4.1608   -1.7588   -0.5186 C   0  0  0  0  0  0  0  0  0  0  0  0
   -4.9475   -3.1724    0.2526 Cl  0  0  0  0  0  0  0  0  0  0  0  0
   -0.5357    1.1154   -0.6328 C   0  0  0  0  0  0  0  0  0  0  0  0
    0.8274    1.1480   -0.8245 C   0  0  0  0  0  0  0  0  0  0  0  0
    5.0589   -0.0220    0.5261 C   0  0  0  0  0  0  0  0  0  0  0  0
    5.3887   -1.1187    0.8760 O   0  0  0  0  0  0  0  0  0  0  0  0
    5.9204    0.8439   -0.1159 O   0  0  0  0  0  0  0  0  0  0  0  0
  2  1  1  1
  2  3  1  0
  3  4  1  0
  4  5  2  0
  5  6  1  0
  6  7  2  0
  7  8  1  0
  8  9  1  0
  9 10  1  0
 10 11  1  0
  8 12  1  0
 12 13  1  0
 13 14  1  0
  7 15  1  0
 15 16  2  0
  2 17  1  0
 17 18  2  0
 17 19  1  0
 16  4  1  0
M  END
>  <zinc_id>  (57) 
ZINC000000001661

>  <smiles>  (57) 
N[C@H](Cc1ccc(N(CCCl)CCCl)cc1)C(=O)O

$$$$

     RDKit          3D

 19 19  0  0  0  0  0  0  0  0999 V2000
    3.1116    1.1045   -0.1821 N   0  0  0  0  0  0  0  0  0  0  0  0
    3.5872    0.1384    0.9752 C   0  0  1  0  0  0  0  0  0  0  0  0
    2.7766   -1.1870    0.3734 C   0  0  0  0  0  0  0  0  0  0  0  0
    1.3601   -0.8116    0.3523 C   0  0  0  0  0  0  0  0  0  0  0  0
    0.8855   -0.2137   -0.7934 C   0  0  0  0  0  0  0  0  0  0  0  0
   -0.3936    0.1917   -0.9692 C   0  0  0  0  0  0  0  0  0  0  0  0
   -1.2733   -0.0117    0.0719 C   0  0  0  0  0  0  0  0  0  0  0  0
   -2.6159    0.4060   -0.0959 N   0  0  0  0  0  0  0  0  0  0  0  0
   -3.5681    0.1906    0.9979 C   0  0  0  0  0  0  0  0  0  0  0  0
   -4.6096   -0.8595    0.6033 C   0  0  0  0  0  0  0  0  0  0  0  0
   -3.8381   -2.4092    0.2336 Cl  0  0  0  0  0  0  0  0  0  0  0  0
   -3.0332    1.0332   -1.3281 C   0  0  0  0  0  0  0  0  0  0  0  0
   -3.3720    2.4966   -1.0809 C   0  0  0  0  0  0  0  0  0  0  0  0
   -4.6755    2.6775    0.0881 Cl  0  0  0  0  0  0  0  0  0  0  0  0
   -0.8600   -0.6068    1.2486 C   0  0  0  0  0  0  0  0  0  0  0  0
    0.4659   -1.0043    1.3771 C   0  0  0  0  0  0  0  0  0  0  0  0
    4.9781   -0.2514    0.3082 C   0  0  0  0  0  0  0  0  0  0  0  0
    5.2726    0.2336   -0.7678 O   0  0  0  0  0  0  0  0  0  0  0  0
    5.8017   -1.1169    0.9592 O   0  0  0  0  0  0  0  0  0  0  0  0
  2  1  1  6
  2  3  1  0
  3  4  1  0
  4  5  2  0
  5  6  1  0
  6  7  2  0
  7  8  1  0
  8  9  1  0
  9 10  1  0
 10 11  1  0
  8 12  1  0
 12 13  1  0
 13 14  1  0
  7 15  1  0
 15 16  2  0
  2 17  1  0
 17 18  2  0
 17 19  1  0
 16  4  1  0
M  END
>  <zinc_id>  (58) 
ZINC000000001673

>  <smiles>  (58) 
N[C@@H](Cc1ccc(N(CCCl)CCCl)cc1)C(=O)O

$$$$

     RDKit          3D

 20 21  0  0  0  0  0  0  0  0999 V2000
   -4.2445   -0.8195   -1.3488 C   0  0  0  0  0  0  0  0  0  0  0  0
   -3.2720   -1.4851   -0.5689 O   0  0  0  0  0  0  0  0  0  0  0  0
   -1.9690   -1.0335   -0.4869 C   0  0  0  0  0  0  0  0  0  0  0  0
   -1.0709   -1.5165   -1.4105 C   0  0  0  0  0  0  0  0  0  0  0  0
   -1.5260   -2.4974   -2.4537 C   0  0  0  0  0  0  0  0  0  0  0  0
    0.2225   -1.0762   -1.3394 C   0  0  0  0  0  0  0  0  0  0  0  0
    0.6651   -0.1696   -0.3828 C   0  0  0  0  0  0  0  0  0  0  0  0
    2.0032    0.3166   -0.3474 N   0  0  0  0  0  0  0  0  0  0  0  0
    2.2624    1.6487   -0.9674 C   0  0  0  0  0  0  0  0  0  0  0  0
    2.6117    2.6274    0.1098 C   0  0  0  0  0  0  0  0  0  0  0  0
    2.9231    4.2248   -0.5948 Cl  0  0  0  0  0  0  0  0  0  0  0  0
    3.1408   -0.2914    0.2228 C   0  0  0  0  0  0  0  0  0  0  0  0
    3.0727   -1.5734    0.8987 C   0  0  0  0  0  0  0  0  0  0  0  0
    2.5607   -2.9091   -0.1217 Cl  0  0  0  0  0  0  0  0  0  0  0  0
   -0.2593    0.2931    0.5262 C   0  0  0  0  0  0  0  0  0  0  0  0
    0.0426    1.1855    1.5270 C   0  0  0  0  0  0  0  0  0  0  0  0
   -0.8725    1.6501    2.4441 C   0  0  0  0  0  0  0  0  0  0  0  0
   -2.1763    1.2187    2.3874 C   0  0  0  0  0  0  0  0  0  0  0  0
   -2.5233    0.3289    1.4061 C   0  0  0  0  0  0  0  0  0  0  0  0
   -1.5910   -0.1220    0.5002 C   0  0  0  0  0  0  0  0  0  0  0  0
  1  2  1  0
  2  3  1  0
  3  4  2  0
  4  5  1  0
  4  6  1  0
  6  7  2  0
  7  8  1  0
  8  9  1  0
  9 10  1  0
 10 11  1  0
  8 12  1  0
 12 13  1  0
 13 14  1  0
  7 15  1  0
 15 16  2  0
 16 17  1  0
 17 18  2  0
 18 19  1  0
 19 20  2  0
 20  3  1  0
 20 15  1  0
M  END
>  <zinc_id>  (59) 
ZINC000000001737

>  <smiles>  (59) 
COc1c(C)cc(N(CCCl)CCCl)c2ccccc12

$$$$

     RDKit          3D

 17 18  0  0  0  0  0  0  0  0999 V2000
   -3.6788   -2.9456    0.6698 C   0  0  0  0  0  0  0  0  0  0  0  0
   -2.7290   -2.0020    1.3455 C   0  0  0  0  0  0  0  0  0  0  0  0
   -2.1151   -1.0368    0.5133 N   0  0  0  0  0  0  0  0  0  0  0  0
   -2.9758   -0.0824    0.0167 C   0  0  0  0  0  0  0  0  0  0  0  0
   -3.5610    0.8895    0.9919 C   0  0  0  0  0  0  0  0  0  0  0  0
   -4.6469    2.0376    0.1278 Cl  0  0  0  0  0  0  0  0  0  0  0  0
   -0.7511   -0.9780    0.5587 C   0  0  0  0  0  0  0  0  0  0  0  0
   -0.0766    0.0756   -0.2903 C   0  0  0  0  0  0  0  0  0  0  0  0
   -0.8068    0.9426   -1.0356 C   0  0  0  0  0  0  0  0  0  0  0  0
    0.3611    1.9242   -1.7774 S   0  0  0  0  0  0  0  0  0  0  0  0
    1.7623    1.2081   -1.1220 C   0  0  0  0  0  0  0  0  0  0  0  0
    3.1443    1.4387   -1.2436 C   0  0  0  0  0  0  0  0  0  0  0  0
    4.0807    0.6775   -0.5787 C   0  0  0  0  0  0  0  0  0  0  0  0
    3.6029   -0.3380    0.2270 C   0  0  0  0  0  0  0  0  0  0  0  0
    4.8496   -1.4623    1.1937 Br  0  0  0  0  0  0  0  0  0  0  0  0
    2.2594   -0.5581    0.3420 C   0  0  0  0  0  0  0  0  0  0  0  0
    1.2810    0.2097   -0.3314 C   0  0  0  0  0  0  0  0  0  0  0  0
  1  2  1  0
  2  3  1  0
  3  4  1  0
  4  5  1  0
  5  6  1  0
  3  7  1  0
  7  8  1  0
  8  9  2  0
  9 10  1  0
 10 11  1  0
 11 12  2  0
 12 13  1  0
 13 14  2  0
 14 15  1  0
 14 16  1  0
 16 17  2  0
 17  8  1  0
 17 11  1  0
M  END
>  <zinc_id>  (60) 
ZINC000000001739

>  <smiles>  (60) 
CCN(CCCl)Cc1csc2ccc(Br)cc12

$$$$

     RDKit          3D

 19 19  0  0  0  0  0  0  0  0999 V2000
    3.6054   -2.4406   -1.8371 C   0  0  0  0  0  0  0  0  0  0  0  0
    4.4658   -1.5361   -1.0723 N   0  0  0  0  0  0  0  0  0  0  0  0
    5.1580   -0.6349   -1.9932 C   0  0  0  0  0  0  0  0  0  0  0  0
    3.6901   -0.7994   -0.0938 C   0  0  0  0  0  0  0  0  0  0  0  0
    2.7569    0.1791   -0.6979 C   0  0  0  0  0  0  0  0  0  0  0  0
    1.9676    0.9335    0.2096 N   0  0  0  0  0  0  0  0  0  0  0  0
    0.7153    0.4646    0.5989 N   0  0  0  0  0  0  0  0  0  0  0  0
   -0.3123    0.4988   -0.1913 C   0  0  0  0  0  0  0  0  0  0  0  0
   -1.6454    0.0036    0.2162 C   0  0  0  0  0  0  0  0  0  0  0  0
   -1.8727   -0.5201    1.4711 C   0  0  0  0  0  0  0  0  0  0  0  0
   -3.2022   -0.8715    1.4947 C   0  0  0  0  0  0  0  0  0  0  0  0
   -3.7072   -0.5443    0.2598 C   0  0  0  0  0  0  0  0  0  0  0  0
   -5.0713   -0.7444   -0.1500 N   0  0  0  0  0  0  0  0  0  0  0  0
   -5.4354   -0.4161   -1.2901 O   0  0  0  0  0  0  0  0  0  0  0  0
   -5.9627   -1.2977    0.7245 O   0  0  0  0  0  0  0  0  0  0  0  0
   -2.7387   -0.0339   -0.4435 O   0  0  0  0  0  0  0  0  0  0  0  0
    2.4064    2.1706    0.7399 C   0  0  0  0  0  0  0  0  0  0  0  0
    1.6357    2.9465    1.6506 N   0  0  0  0  0  0  0  0  0  0  0  0
    3.5466    2.6423    0.4039 O   0  0  0  0  0  0  0  0  0  0  0  0
  1  2  1  0
  2  3  1  0
  2  4  1  0
  4  5  1  0
  5  6  1  0
  6  7  1  0
  7  8  2  0
  8  9  1  0
  9 10  2  0
 10 11  1  0
 11 12  2  0
 12 13  1  0
 13 14  2  0
 13 15  1  0
 12 16  1  0
  6 17  1  0
 17 18  1  0
 17 19  2  0
 16  9  1  0
M  CHG  2  13   1  15  -1
M  END
>  <zinc_id>  (61) 
ZINC000000001805

>  <smiles>  (61) 
CN(C)CCN(/N=C/c1ccc([N+](=O)[O-])o1)C(N)=O

$$$$

     RDKit          3D

 12 12  0  0  0  0  0  0  0  0999 V2000
   -2.9202    0.5175   -1.3401 O   0  0  0  0  0  0  0  0  0  0  0  0
   -2.1873    0.1189   -0.4459 C   0  0  0  0  0  0  0  0  0  0  0  0
   -2.7397   -0.3901    0.8268 C   0  0  0  0  0  0  0  0  0  0  0  0
   -2.8727    0.8578    2.0468 Cl  0  0  0  0  0  0  0  0  0  0  0  0
   -0.7413    0.1325   -0.6084 C   0  0  0  0  0  0  0  0  0  0  0  0
   -0.0129    0.5645   -1.7171 C   0  0  0  0  0  0  0  0  0  0  0  0
    1.3194    0.3946   -1.4223 C   0  0  0  0  0  0  0  0  0  0  0  0
    1.3676   -0.1407   -0.1334 C   0  0  0  0  0  0  0  0  0  0  0  0
    2.5389   -0.4796    0.5860 N   0  0  0  0  0  0  0  0  0  0  0  0
    3.6680   -0.3201    0.1054 O   0  0  0  0  0  0  0  0  0  0  0  0
    2.4290   -0.9964    1.8451 O   0  0  0  0  0  0  0  0  0  0  0  0
    0.1513   -0.2588    0.2571 O   0  0  0  0  0  0  0  0  0  0  0  0
  1  2  2  0
  2  3  1  0
  3  4  1  0
  2  5  1  0
  5  6  2  0
  6  7  1  0
  7  8  2  0
  8  9  1  0
  9 10  2  0
  9 11  1  0
  8 12  1  0
 12  5  1  0
M  CHG  2   9   1  11  -1
M  END
>  <zinc_id>  (62) 
ZINC000000001807

>  <smiles>  (62) 
O=C(CCl)c1ccc([N+](=O)[O-])o1

$$$$

     RDKit          3D

 20 21  0  0  0  0  0  0  0  0999 V2000
    1.4410    0.8807   -1.3374 O   0  0  0  0  0  0  0  0  0  0  0  0
    1.7830    0.2431   -0.3284 C   0  0  0  0  0  0  0  0  0  0  0  0
    0.7970   -0.3527    0.4727 N   0  0  0  0  0  0  0  0  0  0  0  0
   -0.5615   -0.3003    0.2454 N   0  0  0  0  0  0  0  0  0  0  0  0
   -1.3126   -1.2601   -0.1100 C   0  0  0  0  0  0  0  0  0  0  0  0
   -2.7547   -0.9877   -0.3009 C   0  0  0  0  0  0  0  0  0  0  0  0
   -3.7257   -1.8898   -0.6816 C   0  0  0  0  0  0  0  0  0  0  0  0
   -4.9213   -1.2088   -0.7342 C   0  0  0  0  0  0  0  0  0  0  0  0
   -4.6381    0.0845   -0.3838 C   0  0  0  0  0  0  0  0  0  0  0  0
   -5.5795    1.1752   -0.2963 N   0  0  0  0  0  0  0  0  0  0  0  0
   -6.7720    1.0243   -0.5416 O   0  0  0  0  0  0  0  0  0  0  0  0
   -5.1389    2.4235    0.0714 O   0  0  0  0  0  0  0  0  0  0  0  0
   -3.3730    0.1580   -0.1437 O   0  0  0  0  0  0  0  0  0  0  0  0
    3.2021    0.1255    0.0050 C   0  0  0  0  0  0  0  0  0  0  0  0
    4.1636    0.7140   -0.7877 C   0  0  0  0  0  0  0  0  0  0  0  0
    5.5064    0.6271   -0.5094 C   0  0  0  0  0  0  0  0  0  0  0  0
    5.9424   -0.0692    0.5994 C   0  0  0  0  0  0  0  0  0  0  0  0
    7.3103   -0.1554    0.8794 O   0  0  0  0  0  0  0  0  0  0  0  0
    4.9919   -0.6635    1.4020 C   0  0  0  0  0  0  0  0  0  0  0  0
    3.6396   -0.5683    1.1101 C   0  0  0  0  0  0  0  0  0  0  0  0
  1  2  2  0
  2  3  1  0
  3  4  1  0
  4  5  2  0
  5  6  1  0
  6  7  2  0
  7  8  1  0
  8  9  2  0
  9 10  1  0
 10 11  2  0
 10 12  1  0
  9 13  1  0
  2 14  1  0
 14 15  2  0
 15 16  1  0
 16 17  2  0
 17 18  1  0
 17 19  1  0
 19 20  2  0
 13  6  1  0
 20 14  1  0
M  CHG  2  10   1  12  -1
M  END
>  <zinc_id>  (63) 
ZINC000000001808

>  <smiles>  (63) 
O=C(N/N=C/c1ccc([N+](=O)[O-])o1)c1ccc(O)cc1

$$$$

     RDKit          3D

 21 22  0  0  0  0  0  0  0  0999 V2000
   -6.2852    1.5425   -1.7368 C   0  0  0  0  0  0  0  0  0  0  0  0
   -5.8741    1.0434   -0.4407 N   0  0  0  0  0  0  0  0  0  0  0  0
   -5.7954   -0.4043   -0.4666 C   0  0  0  0  0  0  0  0  0  0  0  0
   -5.0450   -0.9035    0.7417 C   0  0  0  0  0  0  0  0  0  0  0  0
   -3.6261   -0.5855    0.6702 N   0  0  0  0  0  0  0  0  0  0  0  0
   -2.9563   -1.7295    0.1232 C   0  0  0  0  0  0  0  0  0  0  0  0
   -1.4927   -1.5380   -0.0048 C   0  0  0  0  0  0  0  0  0  0  0  0
   -0.8294   -2.4976   -0.4778 O   0  0  0  0  0  0  0  0  0  0  0  0
   -0.8015   -0.3743    0.3605 N   0  0  0  0  0  0  0  0  0  0  0  0
    0.6042   -0.2619    0.2093 N   0  0  0  0  0  0  0  0  0  0  0  0
    1.3446    0.3337    1.0533 C   0  0  0  0  0  0  0  0  0  0  0  0
    2.7880    0.4746    0.9419 C   0  0  0  0  0  0  0  0  0  0  0  0
    3.5382    1.1413    1.9060 C   0  0  0  0  0  0  0  0  0  0  0  0
    4.8440    1.0903    1.4978 C   0  0  0  0  0  0  0  0  0  0  0  0
    4.8503    0.3941    0.2974 C   0  0  0  0  0  0  0  0  0  0  0  0
    6.0131    0.1159   -0.4668 N   0  0  0  0  0  0  0  0  0  0  0  0
    5.9090   -0.5072   -1.5145 O   0  0  0  0  0  0  0  0  0  0  0  0
    7.2511    0.5322   -0.0536 O   0  0  0  0  0  0  0  0  0  0  0  0
    3.6116    0.0639    0.0326 O   0  0  0  0  0  0  0  0  0  0  0  0
   -3.4893    0.5049   -0.2845 C   0  0  0  0  0  0  0  0  0  0  0  0
   -4.5590    1.5649   -0.0785 C   0  0  0  0  0  0  0  0  0  0  0  0
  1  2  1  0
  2  3  1  0
  3  4  1  0
  4  5  1  0
  5  6  1  0
  6  7  1  0
  7  8  2  0
  7  9  1  0
  9 10  1  0
 10 11  2  0
 11 12  1  0
 12 13  2  0
 13 14  1  0
 14 15  2  0
 15 16  1  0
 16 17  2  0
 16 18  1  0
 15 19  1  0
  5 20  1  0
 20 21  1  0
 21  2  1  0
 19 12  1  0
M  CHG  2  16   1  18  -1
M  END
>  <zinc_id>  (64) 
ZINC000000001809

>  <smiles>  (64) 
CN1CCN(CC(=O)N/N=C/c2ccc([N+](=O)[O-])o2)CC1

$$$$

     RDKit          3D

 16 16  0  0  0  0  0  0  0  0999 V2000
   -3.6116   -0.5390   -2.0903 C   0  0  0  0  0  0  0  0  0  0  0  0
   -3.0940   -1.3157   -0.8900 C   0  0  0  0  0  0  0  0  0  0  0  0
   -2.7999   -0.3930    0.1818 N   0  0  0  0  0  0  0  0  0  0  0  0
   -1.5258    0.1667    0.2825 N   0  0  0  0  0  0  0  0  0  0  0  0
   -0.4511   -0.4028   -0.1128 C   0  0  0  0  0  0  0  0  0  0  0  0
    0.8706    0.1845   -0.0052 C   0  0  0  0  0  0  0  0  0  0  0  0
    1.2139    1.4077    0.5163 C   0  0  0  0  0  0  0  0  0  0  0  0
    2.5868    1.5242    0.4004 C   0  0  0  0  0  0  0  0  0  0  0  0
    3.0247    0.3619   -0.1895 C   0  0  0  0  0  0  0  0  0  0  0  0
    4.3795    0.0080   -0.5200 N   0  0  0  0  0  0  0  0  0  0  0  0
    4.6028   -1.0921   -1.0548 O   0  0  0  0  0  0  0  0  0  0  0  0
    5.4168    0.8582   -0.2562 O   0  0  0  0  0  0  0  0  0  0  0  0
    1.9748   -0.3834   -0.4034 O   0  0  0  0  0  0  0  0  0  0  0  0
   -3.8313   -0.0852    1.1057 C   0  0  0  0  0  0  0  0  0  0  0  0
   -5.1150   -0.6806    0.9626 N   0  0  0  0  0  0  0  0  0  0  0  0
   -3.6413    0.7188    2.0729 O   0  0  0  0  0  0  0  0  0  0  0  0
  1  2  1  0
  2  3  1  0
  3  4  1  0
  4  5  2  0
  5  6  1  0
  6  7  2  0
  7  8  1  0
  8  9  2  0
  9 10  1  0
 10 11  2  0
 10 12  1  0
  9 13  1  0
  3 14  1  0
 14 15  1  0
 14 16  2  0
 13  6  1  0
M  CHG  2  10   1  12  -1
M  END
>  <zinc_id>  (65) 
ZINC000000001811

>  <smiles>  (65) 
CCN(/N=C/c1ccc([N+](=O)[O-])o1)C(N)=O

$$$$

     RDKit          3D

 14 14  0  0  0  0  0  0  0  0999 V2000
    5.4752    0.3076    0.6419 C   0  0  0  0  0  0  0  0  0  0  0  0
    4.0069    0.4467    0.5380 C   0  0  0  0  0  0  0  0  0  0  0  0
    3.5073    1.5895    0.7067 O   0  0  0  0  0  0  0  0  0  0  0  0
    3.1240   -0.6243    0.2605 N   0  0  0  0  0  0  0  0  0  0  0  0
    1.7399   -0.4932    0.1626 N   0  0  0  0  0  0  0  0  0  0  0  0
    0.9628   -0.0955    1.0735 C   0  0  0  0  0  0  0  0  0  0  0  0
   -0.4886   -0.0072    0.8243 C   0  0  0  0  0  0  0  0  0  0  0  0
   -1.4727    0.4014    1.6947 C   0  0  0  0  0  0  0  0  0  0  0  0
   -2.6797    0.3212    1.0298 C   0  0  0  0  0  0  0  0  0  0  0  0
   -2.3681   -0.1393   -0.2324 C   0  0  0  0  0  0  0  0  0  0  0  0
   -3.3084   -0.3827   -1.2896 N   0  0  0  0  0  0  0  0  0  0  0  0
   -4.5200   -0.1749   -1.0978 O   0  0  0  0  0  0  0  0  0  0  0  0
   -2.8854   -0.8373   -2.4946 O   0  0  0  0  0  0  0  0  0  0  0  0
   -1.0932   -0.3120   -0.2973 O   0  0  0  0  0  0  0  0  0  0  0  0
  1  2  1  0
  2  3  2  0
  2  4  1  0
  4  5  1  0
  5  6  2  0
  6  7  1  0
  7  8  2  0
  8  9  1  0
  9 10  2  0
 10 11  1  0
 11 12  2  0
 11 13  1  0
 10 14  1  0
 14  7  1  0
M  CHG  2  11   1  13  -1
M  END
>  <zinc_id>  (66) 
ZINC000000001813

>  <smiles>  (66) 
CC(=O)N/N=C/c1ccc([N+](=O)[O-])o1

$$$$

     RDKit          3D

 19 20  0  0  0  0  0  0  0  0999 V2000
    5.6325    0.6161   -1.4585 O   0  0  0  0  0  0  0  0  0  0  0  0
    5.0296    0.9304   -0.4207 N   0  0  0  0  0  0  0  0  0  0  0  0
    5.5858    1.8795    0.3975 O   0  0  0  0  0  0  0  0  0  0  0  0
    3.7895    0.3256   -0.0792 C   0  0  0  0  0  0  0  0  0  0  0  0
    3.1026    0.6602    1.0696 C   0  0  0  0  0  0  0  0  0  0  0  0
    1.8974    0.0644    1.3901 C   0  0  0  0  0  0  0  0  0  0  0  0
    1.3271   -0.8921    0.5750 C   0  0  0  0  0  0  0  0  0  0  0  0
    0.1150   -1.4661    0.9334 O   0  0  0  0  0  0  0  0  0  0  0  0
   -1.1161   -0.9589    0.5561 C   0  0  0  0  0  0  0  0  0  0  0  0
   -1.7220   -1.3634   -0.6153 C   0  0  0  0  0  0  0  0  0  0  0  0
   -2.9494   -0.8300   -0.9498 C   0  0  0  0  0  0  0  0  0  0  0  0
   -3.6032    0.0964   -0.1602 C   0  0  0  0  0  0  0  0  0  0  0  0
   -4.8663    0.6494   -0.4983 N   0  0  0  0  0  0  0  0  0  0  0  0
   -5.7359    0.9595    0.3891 C   0  0  0  0  0  0  0  0  0  0  0  0
   -6.9978    0.7333    1.3913 S   0  0  0  0  0  0  0  0  0  0  0  0
   -2.9650    0.4759    1.0034 C   0  0  0  0  0  0  0  0  0  0  0  0
   -1.7397   -0.0238    1.3866 C   0  0  0  0  0  0  0  0  0  0  0  0
    2.0073   -1.2264   -0.5668 C   0  0  0  0  0  0  0  0  0  0  0  0
    3.2085   -0.6300   -0.8825 C   0  0  0  0  0  0  0  0  0  0  0  0
  1  2  2  0
  2  3  1  0
  2  4  1  0
  4  5  2  0
  5  6  1  0
  6  7  2  0
  7  8  1  0
  8  9  1  0
  9 10  2  0
 10 11  1  0
 11 12  2  0
 12 13  1  0
 13 14  2  3
 14 15  2  0
 12 16  1  0
 16 17  2  0
  7 18  1  0
 18 19  2  0
 19  4  1  0
 17  9  1  0
M  CHG  2   2   1   3  -1
M  END
>  <zinc_id>  (67) 
ZINC000000001821

>  <smiles>  (67) 
O=[N+]([O-])c1ccc(Oc2ccc(N=C=S)cc2)cc1

$$$$

     RDKit          3D

 25 28  0  0  0  0  0  0  0  0999 V2000
    4.6792    2.6175   -1.7698 C   0  0  0  0  0  0  0  0  0  0  0  0
    4.3614    1.5335   -0.8781 C   0  0  0  0  0  0  0  0  0  0  0  0
    4.4502    1.8773    0.3396 O   0  0  0  0  0  0  0  0  0  0  0  0
    4.0006    0.2628   -1.2927 O   0  0  0  0  0  0  0  0  0  0  0  0
    3.7303   -0.5886   -0.0694 C   0  0  2  0  0  0  0  0  0  0  0  0
    3.4828   -1.9899   -0.9287 C   0  0  0  0  0  0  0  0  0  0  0  0
    2.2570   -2.5218   -0.1485 C   0  0  0  0  0  0  0  0  0  0  0  0
    1.4363   -1.3010   -0.8097 C   0  0  1  0  0  0  0  0  0  0  0  0
    0.1149   -1.4094    0.2073 C   0  0  2  0  0  0  0  0  0  0  0  0
   -0.7185   -2.3761   -0.7891 C   0  0  0  0  0  0  0  0  0  0  0  0
   -2.1053   -2.4112   -0.2024 C   0  0  0  0  0  0  0  0  0  0  0  0
   -2.8163   -1.0012   -0.6288 C   0  0  1  0  0  0  0  0  0  0  0  0
   -4.0399   -1.2011    0.4136 C   0  0  0  0  0  0  0  0  0  0  0  0
   -4.4831    0.0253    0.8748 C   0  0  0  0  0  0  0  0  0  0  0  0
   -3.8996    1.1818    0.9108 C   0  0  0  0  0  0  0  0  0  0  0  0
   -4.5849    2.3127    1.4463 C   0  0  0  0  0  0  0  0  0  0  0  0
   -5.1315    3.2424    1.8961 N   0  0  0  0  0  0  0  0  0  0  0  0
   -2.5278    1.2953    0.3909 C   0  0  0  0  0  0  0  0  0  0  0  0
   -1.9146   -0.0753    0.4009 C   0  0  1  0  0  0  0  0  0  0  0  0
   -1.8395   -0.7384    1.6534 C   0  0  0  0  0  0  0  0  0  0  0  0
   -0.5888   -0.0564   -0.4871 C   0  0  1  0  0  0  0  0  0  0  0  0
    0.2659    1.0163    0.3641 C   0  0  0  0  0  0  0  0  0  0  0  0
    1.6729    1.0253   -0.3005 C   0  0  0  0  0  0  0  0  0  0  0  0
    2.1799   -0.2249    0.0994 C   0  0  2  0  0  0  0  0  0  0  0  0
    2.0186   -0.4949    1.5546 C   0  0  0  0  0  0  0  0  0  0  0  0
  1  2  1  0
  2  3  2  0
  2  4  1  0
  5  4  1  6
  5  6  1  0
  6  7  1  0
  8  7  1  1
  8  9  1  0
  9 10  1  6
 10 11  1  0
 12 11  1  1
 12 13  1  0
 13 14  1  0
 14 15  2  0
 15 16  1  0
 16 17  3  0
 15 18  1  0
 18 19  1  0
 19 20  1  1
 19 21  1  0
 21 22  1  1
 22 23  1  0
 23 24  1  0
 24 25  1  1
 24  5  1  0
 24  8  1  0
 21  9  1  0
 19 12  1  0
M  END
>  <zinc_id>  (68) 
ZINC000000001843

>  <smiles>  (68) 
CC(=O)O[C@@H]1CC[C@H]2[C@@H]3CC[C@H]4CC=C(C#N)C[C@]4(C)[C@H]3CC[C@@]21C

$$$$

     RDKit          3D

 19 21  0  0  0  0  0  0  0  0999 V2000
    0.8562   -2.9239    0.1266 C   0  0  0  0  0  0  0  0  0  0  0  0
    1.4988   -1.6045   -0.1079 C   0  0  0  0  0  0  0  0  0  0  0  0
    2.7609   -1.5695   -0.3814 N   0  0  0  0  0  0  0  0  0  0  0  0
    3.4128   -0.3052   -0.6138 C   0  0  0  0  0  0  0  0  0  0  0  0
    4.6546   -0.2975   -0.8810 O   0  0  0  0  0  0  0  0  0  0  0  0
    2.6624    0.9414   -0.5440 C   0  0  0  0  0  0  0  0  0  0  0  0
    3.3687    2.1671   -0.7853 C   0  0  0  0  0  0  0  0  0  0  0  0
    3.9474    3.1552   -0.9639 N   0  0  0  0  0  0  0  0  0  0  0  0
    1.3725    0.8832   -0.2628 C   0  0  0  0  0  0  0  0  0  0  0  0
    0.6857   -0.3968   -0.0217 C   0  0  0  0  0  0  0  0  0  0  0  0
   -0.6077   -0.4394    0.2591 C   0  0  0  0  0  0  0  0  0  0  0  0
   -1.2795   -1.7020    0.4957 C   0  0  0  0  0  0  0  0  0  0  0  0
   -2.5721   -1.6866    0.7721 C   0  0  0  0  0  0  0  0  0  0  0  0
   -3.3344   -0.4702    0.8468 N   0  0  0  0  0  0  0  0  0  0  0  0
   -4.7060   -0.1936    1.1210 C   0  0  0  0  0  0  0  0  0  0  0  0
   -4.9096    1.1066    1.0696 C   0  0  0  0  0  0  0  0  0  0  0  0
   -3.6986    1.7749    0.7607 N   0  0  0  0  0  0  0  0  0  0  0  0
   -2.7082    0.7819    0.6207 C   0  0  0  0  0  0  0  0  0  0  0  0
   -1.4038    0.7788    0.3409 C   0  0  0  0  0  0  0  0  0  0  0  0
  1  2  1  0
  2  3  2  0
  3  4  1  0
  4  5  2  0
  4  6  1  0
  6  7  1  0
  7  8  3  0
  6  9  2  0
  9 10  1  0
 10 11  2  0
 11 12  1  0
 12 13  2  0
 13 14  1  0
 14 15  1  0
 15 16  2  0
 16 17  1  0
 17 18  1  0
 18 19  2  0
 10  2  1  0
 19 11  1  0
 18 14  1  0
M  END
>  <zinc_id>  (69) 
ZINC000000001851

>  <smiles>  (69) 
CC1=NC(=O)C(C#N)=C/C1=C1/C=CN2C=CNC2=C1

$$$$

     RDKit          3D

 24 25  0  0  0  0  0  0  0  0999 V2000
   -5.8362    2.1885    0.9793 C   0  0  0  0  0  0  0  0  0  0  0  0
   -5.4332    0.9904    0.3612 O   0  0  0  0  0  0  0  0  0  0  0  0
   -4.0940    0.6993    0.1509 C   0  0  0  0  0  0  0  0  0  0  0  0
   -3.1377    1.6104    0.5597 C   0  0  0  0  0  0  0  0  0  0  0  0
   -1.8206    1.3476    0.3646 C   0  0  0  0  0  0  0  0  0  0  0  0
   -1.3746    0.1472   -0.2574 C   0  0  0  0  0  0  0  0  0  0  0  0
    0.0012   -0.0113   -0.4008 C   0  0  0  0  0  0  0  0  0  0  0  0
    0.9771   -0.5763   -0.7279 N   0  0  0  0  0  0  0  0  0  0  0  0
    2.3277   -0.3011   -0.6541 N   0  0  0  0  0  0  0  0  0  0  0  0
    3.0259   -0.0976    0.5865 C   0  0  0  0  0  0  0  0  0  0  0  0
    2.3590   -0.1788    1.6227 O   0  0  0  0  0  0  0  0  0  0  0  0
    4.4514    0.1895    0.5958 C   0  0  0  0  0  0  0  0  0  0  0  0
    5.0993    0.3809    1.7927 C   0  0  0  0  0  0  0  0  0  0  0  0
    6.4544    0.6546    1.8185 C   0  0  0  0  0  0  0  0  0  0  0  0
    7.1170    0.7292    0.6733 N   0  0  0  0  0  0  0  0  0  0  0  0
    6.5504    0.5547   -0.5106 C   0  0  0  0  0  0  0  0  0  0  0  0
    5.1948    0.2799   -0.5575 C   0  0  0  0  0  0  0  0  0  0  0  0
   -2.3801   -0.7471   -0.6565 C   0  0  0  0  0  0  0  0  0  0  0  0
   -2.0360   -1.9840   -1.3206 C   0  0  0  0  0  0  0  0  0  0  0  0
   -2.9751   -2.7683   -1.6869 O   0  0  0  0  0  0  0  0  0  0  0  0
   -0.7832   -2.4406   -1.6192 O   0  0  0  0  0  0  0  0  0  0  0  0
   -3.7238   -0.4694   -0.4509 C   0  0  0  0  0  0  0  0  0  0  0  0
   -4.7528   -1.3465   -0.8373 O   0  0  0  0  0  0  0  0  0  0  0  0
   -5.2109   -2.2681    0.1746 C   0  0  0  0  0  0  0  0  0  0  0  0
  1  2  1  0
  2  3  1  0
  3  4  2  0
  4  5  1  0
  5  6  2  0
  6  7  1  0
  7  8  2  0
  8  9  1  0
  9 10  1  0
 10 11  2  0
 10 12  1  0
 12 13  2  0
 13 14  1  0
 14 15  2  0
 15 16  1  0
 16 17  2  0
  6 18  1  0
 18 19  1  0
 19 20  2  0
 19 21  1  0
 18 22  2  0
 22 23  1  0
 23 24  1  0
 22  3  1  0
 17 12  1  0
M  END
>  <zinc_id>  (70) 
ZINC000000001855

>  <smiles>  (70) 
COc1ccc(/C=N/NC(=O)c2ccncc2)c(C(=O)O)c1OC

$$$$

     RDKit          3D

 19 19  0  0  0  0  0  0  0  0999 V2000
    4.0185    1.8020    2.1147 C   0  0  0  0  0  0  0  0  0  0  0  0
    4.0091    1.8796    0.6243 C   0  0  0  0  0  0  0  0  0  0  0  0
    4.4716    2.9128    0.0402 O   0  0  0  0  0  0  0  0  0  0  0  0
    3.5190    0.8796   -0.1856 O   0  0  0  0  0  0  0  0  0  0  0  0
    3.5103    0.9364   -1.6028 C   0  0  0  0  0  0  0  0  0  0  0  0
    2.8748   -0.3629   -2.1078 C   0  0  0  0  0  0  0  0  0  0  0  0
    1.4864   -0.3958   -1.5313 C   0  0  0  0  0  0  0  0  0  0  0  0
    0.4440    0.1637   -2.2127 C   0  0  0  0  0  0  0  0  0  0  0  0
   -0.8088    0.1025   -1.6323 C   0  0  0  0  0  0  0  0  0  0  0  0
   -1.0229   -0.5005   -0.4028 C   0  0  0  0  0  0  0  0  0  0  0  0
   -2.3352   -0.5337    0.1515 N   0  0  0  0  0  0  0  0  0  0  0  0
   -2.5447   -1.1258    1.4574 C   0  0  0  0  0  0  0  0  0  0  0  0
   -2.9270   -0.0192    2.4267 C   0  0  0  0  0  0  0  0  0  0  0  0
   -3.1973   -0.6480    4.0531 Cl  0  0  0  0  0  0  0  0  0  0  0  0
   -3.4632    0.0264   -0.6004 C   0  0  0  0  0  0  0  0  0  0  0  0
   -4.3770   -1.1209   -1.0121 C   0  0  0  0  0  0  0  0  0  0  0  0
   -4.9530   -1.9366    0.4438 Cl  0  0  0  0  0  0  0  0  0  0  0  0
    0.0248   -1.0671    0.2895 C   0  0  0  0  0  0  0  0  0  0  0  0
    1.2707   -0.9924   -0.3134 C   0  0  0  0  0  0  0  0  0  0  0  0
  1  2  1  0
  2  3  2  0
  2  4  1  0
  4  5  1  0
  5  6  1  0
  6  7  1  0
  7  8  2  0
  8  9  1  0
  9 10  2  0
 10 11  1  0
 11 12  1  0
 12 13  1  0
 13 14  1  0
 11 15  1  0
 15 16  1  0
 16 17  1  0
 10 18  1  0
 18 19  2  0
 19  7  1  0
M  END
>  <zinc_id>  (71) 
ZINC000000001922

>  <smiles>  (71) 
CC(=O)OCCc1ccc(N(CCCl)CCCl)cc1

$$$$

     RDKit          3D

 11 11  0  0  0  0  0  0  0  0999 V2000
    4.1386   -0.6417   -0.2806 N   0  0  0  0  0  0  0  0  0  0  0  0
    2.9796    0.1003   -0.0033 C   0  0  0  0  0  0  0  0  0  0  0  0
    3.0461    1.3475    0.1328 O   0  0  0  0  0  0  0  0  0  0  0  0
    1.6856   -0.5158    0.1357 N   0  0  0  0  0  0  0  0  0  0  0  0
    0.5792    0.2658    0.4095 N   0  0  0  0  0  0  0  0  0  0  0  0
   -0.7621   -0.0894    0.1663 C   0  0  0  0  0  0  0  0  0  0  0  0
   -1.7725    0.7835    0.4812 C   0  0  0  0  0  0  0  0  0  0  0  0
   -3.1034    0.4806    0.2616 C   0  0  0  0  0  0  0  0  0  0  0  0
   -3.3565   -0.7537   -0.2937 C   0  0  0  0  0  0  0  0  0  0  0  0
   -2.3691   -1.6559   -0.6228 C   0  0  0  0  0  0  0  0  0  0  0  0
   -1.0656   -1.3107   -0.3866 C   0  0  0  0  0  0  0  0  0  0  0  0
  1  2  1  0
  2  3  2  0
  2  4  1  0
  4  5  1  0
  5  6  1  0
  6  7  2  0
  7  8  1  0
  8  9  2  0
  9 10  1  0
 10 11  2  0
 11  6  1  0
M  END
>  <zinc_id>  (72) 
ZINC000000001924

>  <smiles>  (72) 
NC(=O)NNc1ccccc1

$$$$

     RDKit          3D

 19 20  0  0  0  0  0  0  0  0999 V2000
    4.1041   -1.5204    1.4751 C   0  0  0  0  0  0  0  0  0  0  0  0
    4.5222   -1.5141    0.1490 O   0  0  0  0  0  0  0  0  0  0  0  0
    3.8908   -0.1511   -0.6111 P   0  0  0  0  0  0  0  0  0  0  0  0
    3.9834   -0.4081   -2.3326 S   0  0  0  0  0  0  0  0  0  0  0  0
    4.8215    1.2318   -0.2940 O   0  0  0  0  0  0  0  0  0  0  0  0
    4.2071    1.8668    0.8071 C   0  0  0  0  0  0  0  0  0  0  0  0
    1.9167    0.2406   -0.0826 S   0  0  0  0  0  0  0  0  0  0  0  0
    0.7224   -0.7482   -1.0027 C   0  0  0  0  0  0  0  0  0  0  0  0
   -0.6077   -0.3872   -0.5484 N   0  0  0  0  0  0  0  0  0  0  0  0
   -1.4950    0.6071   -1.0213 C   0  0  0  0  0  0  0  0  0  0  0  0
   -1.2024    1.3737   -1.9924 O   0  0  0  0  0  0  0  0  0  0  0  0
   -2.7334    0.6028   -0.2477 C   0  0  0  0  0  0  0  0  0  0  0  0
   -3.8751    1.3750   -0.3339 C   0  0  0  0  0  0  0  0  0  0  0  0
   -4.9480    1.1863    0.5268 C   0  0  0  0  0  0  0  0  0  0  0  0
   -4.8369    0.1945    1.4791 C   0  0  0  0  0  0  0  0  0  0  0  0
   -3.6841   -0.5798    1.5605 C   0  0  0  0  0  0  0  0  0  0  0  0
   -2.6198   -0.3892    0.7033 C   0  0  0  0  0  0  0  0  0  0  0  0
   -1.3023   -1.0210    0.5357 C   0  0  0  0  0  0  0  0  0  0  0  0
   -0.8636   -1.9596    1.2298 O   0  0  0  0  0  0  0  0  0  0  0  0
  1  2  1  0
  2  3  1  0
  3  4  2  0
  3  5  1  0
  5  6  1  0
  3  7  1  0
  7  8  1  0
  8  9  1  0
  9 10  1  0
 10 11  2  0
 10 12  1  0
 12 13  2  0
 13 14  1  0
 14 15  2  0
 15 16  1  0
 16 17  2  0
 17 18  1  0
 18 19  2  0
 18  9  1  0
 17 12  1  0
M  END
>  <zinc_id>  (73) 
ZINC000000001934

>  <smiles>  (73) 
COP(=S)(OC)SCN1C(=O)c2ccccc2C1=O

$$$$

     RDKit          3D

 22 24  0  0  0  0  0  0  0  0999 V2000
    1.3058   -0.7867   -1.6940 O   0  0  0  0  0  0  0  0  0  0  0  0
    0.9884   -1.0150   -1.2544 C   0  0  0  0  0  0  0  0  0  0  0  0
   -0.3763   -1.3099   -1.3974 N   0  0  0  0  0  0  0  0  0  0  0  0
   -1.2884   -2.0033   -0.3431 C   0  0  2  0  0  0  0  0  0  0  0  0
   -2.6751   -1.0481   -0.7175 C   0  0  2  0  0  0  0  0  0  0  0  0
   -2.0705    0.4152   -0.3817 C   0  0  0  0  0  0  0  0  0  0  0  0
   -2.6327    1.1218    0.6729 C   0  0  0  0  0  0  0  0  0  0  0  0
   -4.1883    1.1595    0.8244 C   0  0  1  0  0  0  0  0  0  0  0  0
   -4.5336    1.9582   -0.8450 Cl  0  0  0  0  0  0  0  0  0  0  0  0
   -4.5263   -0.2968    0.3524 C   0  0  0  0  0  0  0  0  0  0  0  0
   -3.4453   -1.2100    0.6321 N   0  0  0  0  0  0  0  0  0  0  0  0
   -0.7838   -1.3082    0.9620 C   0  0  0  0  0  0  0  0  0  0  0  0
   -1.4590   -1.3670    1.9942 O   0  0  0  0  0  0  0  0  0  0  0  0
    0.4317   -0.6156    0.9866 N   0  0  0  0  0  0  0  0  0  0  0  0
    1.6049   -1.3446    0.1777 C   0  0  2  0  0  0  0  0  0  0  0  0
    2.7232   -0.1064    0.3846 C   0  0  2  0  0  0  0  0  0  0  0  0
    1.8042    1.1990    0.1228 C   0  0  0  0  0  0  0  0  0  0  0  0
    2.8112    2.2577    0.4633 C   0  0  0  0  0  0  0  0  0  0  0  0
    4.0839    2.2167   -0.4662 C   0  0  1  0  0  0  0  0  0  0  0  0
    5.1394    1.1270    0.6342 Cl  0  0  0  0  0  0  0  0  0  0  0  0
    3.6744    1.1126   -1.4993 C   0  0  0  0  0  0  0  0  0  0  0  0
    3.4122   -0.1559   -0.9858 N   0  0  0  0  0  0  0  0  0  0  0  0
  1  2  2  0
  2  3  1  0
  4  3  1  6
  4  5  1  0
  5  6  1  1
  6  7  1  0
  7  8  1  0
  8  9  1  6
  8 10  1  0
 10 11  1  0
  4 12  1  0
 12 13  2  0
 12 14  1  0
 15 14  1  1
 15 16  1  0
 16 17  1  6
 17 18  1  0
 18 19  1  0
 19 20  1  1
 19 21  1  0
 21 22  1  0
 15  2  1  0
 22 16  1  0
 11  5  1  0
M  END
>  <zinc_id>  (74) 
ZINC000000001952

>  <smiles>  (74) 
O=C1N[C@H]([C@@H]2CC[C@@H](Cl)CN2)C(=O)N[C@@H]1[C@@H]1CC[C@@H](Cl)CN1

$$$$

     RDKit          3D

 21 21  0  0  0  0  0  0  0  0999 V2000
   -4.2155   -3.5975    1.0095 C   0  0  0  0  0  0  0  0  0  0  0  0
   -4.4554   -2.1176    0.6406 C   0  0  0  0  0  0  0  0  0  0  0  0
   -3.6097   -1.4116    1.6135 O   0  0  0  0  0  0  0  0  0  0  0  0
   -2.5776   -0.5226    0.6849 P   0  0  0  0  0  0  0  0  0  0  0  0
   -2.4260   -1.4873   -0.8805 S   0  0  0  0  0  0  0  0  0  0  0  0
   -2.7902    1.0073    0.1798 O   0  0  0  0  0  0  0  0  0  0  0  0
   -3.9012    1.0758   -0.7113 C   0  0  0  0  0  0  0  0  0  0  0  0
   -3.8242    2.3027   -1.5329 C   0  0  0  0  0  0  0  0  0  0  0  0
   -0.9664   -0.6741    1.2880 O   0  0  0  0  0  0  0  0  0  0  0  0
    0.0342   -0.1695    0.5143 C   0  0  0  0  0  0  0  0  0  0  0  0
   -0.1914    0.4203   -0.7452 C   0  0  0  0  0  0  0  0  0  0  0  0
    0.7693    0.9339   -1.5316 C   0  0  0  0  0  0  0  0  0  0  0  0
    0.4075    1.4537   -2.8916 C   0  0  0  0  0  0  0  0  0  0  0  0
    2.0253    0.8673   -1.1079 N   0  0  0  0  0  0  0  0  0  0  0  0
    2.2825    0.2873    0.0934 C   0  0  0  0  0  0  0  0  0  0  0  0
    3.7154    0.2789    0.3692 N   0  0  0  0  0  0  0  0  0  0  0  0
    4.4679   -0.5665   -0.4794 C   0  0  0  0  0  0  0  0  0  0  0  0
    5.2690   -1.6410    0.1820 C   0  0  0  0  0  0  0  0  0  0  0  0
    4.1841    1.2717    1.2534 C   0  0  0  0  0  0  0  0  0  0  0  0
    4.4460    2.4992    0.3167 C   0  0  0  0  0  0  0  0  0  0  0  0
    1.3566   -0.2104    0.8965 N   0  0  0  0  0  0  0  0  0  0  0  0
  1  2  1  0
  2  3  1  0
  3  4  1  0
  4  5  2  0
  4  6  1  0
  6  7  1  0
  7  8  1  0
  4  9  1  0
  9 10  1  0
 10 11  2  0
 11 12  1  0
 12 13  1  0
 12 14  2  0
 14 15  1  0
 15 16  1  0
 16 17  1  0
 17 18  1  0
 16 19  1  0
 19 20  1  0
 15 21  2  0
 21 10  1  0
M  END
>  <zinc_id>  (75) 
ZINC000000001961

>  <smiles>  (75) 
CCOP(=S)(OCC)Oc1cc(C)nc(N(CC)CC)n1

$$$$

     RDKit          3D

 15 15  0  0  0  0  0  0  0  0999 V2000
    4.5848    0.8885   -0.4745 C   0  0  0  0  0  0  0  0  0  0  0  0
    3.7444   -0.3380   -0.2762 C   0  0  0  0  0  0  0  0  0  0  0  0
    3.9861   -1.3766   -1.3478 C   0  0  0  0  0  0  0  0  0  0  0  0
    4.0762   -1.0288    1.0596 C   0  0  0  0  0  0  0  0  0  0  0  0
    2.2923    0.0947   -0.2305 C   0  0  0  0  0  0  0  0  0  0  0  0
    1.9702    1.3288   -0.2883 O   0  0  0  0  0  0  0  0  0  0  0  0
    1.2502   -0.8369   -0.1250 N   0  0  0  0  0  0  0  0  0  0  0  0
   -0.0781   -0.6923   -0.0772 N   0  0  0  0  0  0  0  0  0  0  0  0
   -0.6611    0.5899    0.1147 C   0  0  0  0  0  0  0  0  0  0  0  0
   -2.1573    0.4024    0.1158 C   0  0  0  0  0  0  0  0  0  0  0  0
   -2.8924    0.8850   -0.9331 C   0  0  0  0  0  0  0  0  0  0  0  0
   -4.2635    0.7132   -0.9682 C   0  0  0  0  0  0  0  0  0  0  0  0
   -4.9245    0.0482    0.0600 C   0  0  0  0  0  0  0  0  0  0  0  0
   -4.1460   -0.4241    1.0998 C   0  0  0  0  0  0  0  0  0  0  0  0
   -2.7814   -0.2539    1.1335 C   0  0  0  0  0  0  0  0  0  0  0  0
  1  2  1  0
  2  3  1  0
  2  4  1  0
  2  5  1  0
  5  6  2  0
  5  7  1  0
  7  8  1  0
  8  9  1  0
  9 10  1  0
 10 11  2  0
 11 12  1  0
 12 13  2  0
 13 14  1  0
 14 15  2  0
 15 10  1  0
M  END
>  <zinc_id>  (76) 
ZINC000000001967

>  <smiles>  (76) 
CC(C)(C)C(=O)NNCc1ccccc1

$$$$

     RDKit          3D

 17 18  0  0  0  0  0  0  0  0999 V2000
   -2.6254    0.1895   -2.1596 C   0  0  0  0  0  0  0  0  0  0  0  0
   -2.2450   -0.2076   -0.8351 C   0  0  0  0  0  0  0  0  0  0  0  0
   -2.6805   -1.5596   -0.7122 C   0  0  0  0  0  0  0  0  0  0  0  0
   -2.7397    0.8715    0.0748 C   0  0  0  0  0  0  0  0  0  0  0  0
   -1.7246    1.9706    0.3226 C   0  0  0  0  0  0  0  0  0  0  0  0
   -0.4823    1.4757    1.0346 C   0  0  0  0  0  0  0  0  0  0  0  0
   -0.3440    0.0640    0.6745 C   0  0  2  0  0  0  0  0  0  0  0  0
   -1.2702   -0.8526    1.4291 C   0  0  0  0  0  0  0  0  0  0  0  0
    1.0445   -0.6027    0.9735 C   0  0  2  0  0  0  0  0  0  0  0  0
    1.7556    0.6184    1.7256 C   0  0  0  0  0  0  0  0  0  0  0  0
    1.9579    0.3200    2.8769 O   0  0  0  0  0  0  0  0  0  0  0  0
    1.8681   -0.5855   -0.3024 C   0  0  0  0  0  0  0  0  0  0  0  0
    3.2004   -0.1016   -0.4090 C   0  0  0  0  0  0  0  0  0  0  0  0
    3.8808   -0.0843   -1.4364 O   0  0  0  0  0  0  0  0  0  0  0  0
    1.2494   -1.0663   -1.3368 C   0  0  0  0  0  0  0  0  0  0  0  0
   -0.1739   -1.5346   -1.0386 C   0  0  0  0  0  0  0  0  0  0  0  0
   -0.6712    0.0327   -0.8816 C   0  0  1  0  0  0  0  0  0  0  0  0
  1  2  1  0
  2  3  1  0
  2  4  1  0
  4  5  1  0
  5  6  1  0
  6  7  1  0
  7  8  1  1
  7  9  1  0
  9 10  1  1
 10 11  2  0
  9 12  1  0
 12 13  1  0
 13 14  2  0
 12 15  2  0
 15 16  1  0
 17 16  1  6
 17  2  1  0
 17  7  1  0
M  END
>  <zinc_id>  (77) 
ZINC000000001969

>  <smiles>  (77) 
CC1(C)CCC[C@]2(C)[C@H](C=O)C(C=O)=CC[C@@H]12

$$$$

     RDKit          3D

 22 23  0  0  0  0  0  0  0  0999 V2000
   -3.9587   -0.3687   -2.8630 C   0  0  0  0  0  0  0  0  0  0  0  0
   -3.0954   -0.2279   -1.6252 C   0  0  0  0  0  0  0  0  0  0  0  0
   -3.9375    0.0995   -0.5739 O   0  0  0  0  0  0  0  0  0  0  0  0
   -3.1077    0.2899    0.8838 P   0  0  0  0  0  0  0  0  0  0  0  0
   -3.1054    1.9651    1.2690 S   0  0  0  0  0  0  0  0  0  0  0  0
   -4.0038   -0.5045    2.0836 O   0  0  0  0  0  0  0  0  0  0  0  0
   -4.4317   -1.7371    1.5489 C   0  0  0  0  0  0  0  0  0  0  0  0
   -5.2408   -2.5091    2.5612 C   0  0  0  0  0  0  0  0  0  0  0  0
   -1.5619   -0.3894    0.8504 O   0  0  0  0  0  0  0  0  0  0  0  0
   -0.4853    0.3028    0.2793 C   0  0  0  0  0  0  0  0  0  0  0  0
   -0.6299    1.5560   -0.2769 C   0  0  0  0  0  0  0  0  0  0  0  0
    0.4324    2.2338   -0.8380 C   0  0  0  0  0  0  0  0  0  0  0  0
    1.6640    1.6129   -0.8271 C   0  0  0  0  0  0  0  0  0  0  0  0
    2.6694    2.1835   -1.3248 O   0  0  0  0  0  0  0  0  0  0  0  0
    1.7860    0.3865   -0.2784 N   0  0  0  0  0  0  0  0  0  0  0  0
    3.0908   -0.2006   -0.3001 C   0  0  0  0  0  0  0  0  0  0  0  0
    4.1563    0.3639    0.3607 C   0  0  0  0  0  0  0  0  0  0  0  0
    5.4243   -0.1820    0.3556 C   0  0  0  0  0  0  0  0  0  0  0  0
    5.6567   -1.3437   -0.3355 C   0  0  0  0  0  0  0  0  0  0  0  0
    4.6004   -1.9230   -1.0034 C   0  0  0  0  0  0  0  0  0  0  0  0
    3.3326   -1.3695   -0.9933 C   0  0  0  0  0  0  0  0  0  0  0  0
    0.7453   -0.2382    0.2528 N   0  0  0  0  0  0  0  0  0  0  0  0
  1  2  1  0
  2  3  1  0
  3  4  1  0
  4  5  2  0
  4  6  1  0
  6  7  1  0
  7  8  1  0
  4  9  1  0
  9 10  1  0
 10 11  1  0
 11 12  2  0
 12 13  1  0
 13 14  2  0
 13 15  1  0
 15 16  1  0
 16 17  2  0
 17 18  1  0
 18 19  2  0
 19 20  1  0
 20 21  2  0
 15 22  1  0
 22 10  2  0
 21 16  1  0
M  END
>  <zinc_id>  (78) 
ZINC000000002006

>  <smiles>  (78) 
CCOP(=S)(OCC)Oc1ccc(=O)n(-c2ccccc2)n1

$$$$

     RDKit          3D

 19 19  0  0  0  0  0  0  0  0999 V2000
    1.7697    1.6712    3.0671 C   0  0  0  0  0  0  0  0  0  0  0  0
    2.3008    1.2061    1.7694 C   0  0  0  0  0  0  0  0  0  0  0  0
    1.8349   -0.1010    1.5416 O   0  0  0  0  0  0  0  0  0  0  0  0
    2.0686   -0.2581   -0.1409 P   0  0  0  0  0  0  0  0  0  0  0  0
    1.2321   -1.7207   -0.6106 S   0  0  0  0  0  0  0  0  0  0  0  0
    3.6262   -0.2716   -0.6655 O   0  0  0  0  0  0  0  0  0  0  0  0
    4.3481   -0.9771    0.3491 C   0  0  0  0  0  0  0  0  0  0  0  0
    4.0202   -2.4605    0.1440 C   0  0  0  0  0  0  0  0  0  0  0  0
    1.1395    1.0561   -0.7977 O   0  0  0  0  0  0  0  0  0  0  0  0
   -0.2275    0.9376   -0.7628 C   0  0  0  0  0  0  0  0  0  0  0  0
   -1.0602    1.9871   -1.0146 C   0  0  0  0  0  0  0  0  0  0  0  0
   -2.3881    1.8712   -0.9660 C   0  0  0  0  0  0  0  0  0  0  0  0
   -3.3012    3.0491   -1.0371 C   0  0  0  0  0  0  0  0  0  0  0  0
   -2.9773    0.6153   -0.6362 N   0  0  0  0  0  0  0  0  0  0  0  0
   -2.1477   -0.3313   -0.3846 C   0  0  0  0  0  0  0  0  0  0  0  0
   -2.8487   -1.6092    0.0228 N   0  0  0  0  0  0  0  0  0  0  0  0
   -2.8021   -2.8396   -0.7099 C   0  0  0  0  0  0  0  0  0  0  0  0
   -3.6556   -1.5971    1.2670 C   0  0  0  0  0  0  0  0  0  0  0  0
   -0.9318   -0.2276   -0.4350 N   0  0  0  0  0  0  0  0  0  0  0  0
  1  2  1  0
  2  3  1  0
  3  4  1  0
  4  5  2  0
  4  6  1  0
  6  7  1  0
  7  8  1  0
  4  9  1  0
  9 10  1  0
 10 11  2  0
 11 12  1  0
 12 13  1  0
 12 14  2  0
 14 15  1  0
 15 16  1  0
 16 17  1  0
 16 18  1  0
 15 19  2  0
 19 10  1  0
M  END
>  <zinc_id>  (79) 
ZINC000000002010

>  <smiles>  (79) 
CCOP(=S)(OCC)Oc1cc(C)nc(N(C)C)n1

$$$$

     RDKit          3D

 16 16  0  0  0  0  0  0  0  0999 V2000
   -2.8232    2.1160   -0.7450 C   0  0  0  0  0  0  0  0  0  0  0  0
   -2.7381    0.7732   -1.1010 O   0  0  0  0  0  0  0  0  0  0  0  0
   -2.3162   -0.1667    0.2650 P   0  0  0  0  0  0  0  0  0  0  0  0
   -2.7614   -1.8367   -0.0354 S   0  0  0  0  0  0  0  0  0  0  0  0
   -3.4635    0.3131    1.4770 O   0  0  0  0  0  0  0  0  0  0  0  0
   -4.6666   -0.2605    1.1692 C   0  0  0  0  0  0  0  0  0  0  0  0
   -0.8046    0.0699    0.8270 O   0  0  0  0  0  0  0  0  0  0  0  0
    0.4726   -0.0171    0.4174 C   0  0  0  0  0  0  0  0  0  0  0  0
    1.5201    0.3116    1.3136 C   0  0  0  0  0  0  0  0  0  0  0  0
    2.8336    0.2374    0.9392 C   0  0  0  0  0  0  0  0  0  0  0  0
    4.1471    0.6396    2.0323 Cl  0  0  0  0  0  0  0  0  0  0  0  0
    3.1772   -0.1617   -0.3282 C   0  0  0  0  0  0  0  0  0  0  0  0
    4.8338   -0.2667   -0.8353 Cl  0  0  0  0  0  0  0  0  0  0  0  0
    2.1506   -0.4764   -1.1838 C   0  0  0  0  0  0  0  0  0  0  0  0
    0.8093   -0.4147   -0.8449 C   0  0  0  0  0  0  0  0  0  0  0  0
   -0.3707   -0.8604   -2.0862 Cl  0  0  0  0  0  0  0  0  0  0  0  0
  1  2  1  0
  2  3  1  0
  3  4  2  0
  3  5  1  0
  5  6  1  0
  3  7  1  0
  7  8  1  0
  8  9  2  0
  9 10  1  0
 10 11  1  0
 10 12  2  0
 12 13  1  0
 12 14  1  0
 14 15  2  0
 15 16  1  0
 15  8  1  0
M  END
>  <zinc_id>  (80) 
ZINC000000002040

>  <smiles>  (80) 
COP(=S)(OC)Oc1cc(Cl)c(Cl)cc1Cl

$$$$

     RDKit          3D

 18 18  0  0  0  0  0  0  0  0999 V2000
   -2.7914    1.9897    2.1171 C   0  0  0  0  0  0  0  0  0  0  0  0
   -2.2281    2.3563    0.7613 C   0  0  0  0  0  0  0  0  0  0  0  0
   -1.4843    1.3091    0.1893 O   0  0  0  0  0  0  0  0  0  0  0  0
   -2.1396    0.1013   -0.0492 C   0  0  0  0  0  0  0  0  0  0  0  0
   -3.4705   -0.0739    0.2603 C   0  0  0  0  0  0  0  0  0  0  0  0
   -4.1010   -1.2755    0.0170 C   0  0  0  0  0  0  0  0  0  0  0  0
   -3.3518   -2.2877   -0.5443 C   0  0  0  0  0  0  0  0  0  0  0  0
   -2.0206   -2.1106   -0.8532 C   0  0  0  0  0  0  0  0  0  0  0  0
   -1.3854   -0.9116   -0.6122 C   0  0  0  0  0  0  0  0  0  0  0  0
    0.0320   -0.7076   -0.9357 C   0  0  0  0  0  0  0  0  0  0  0  0
    0.7377   -1.5980   -1.4424 O   0  0  0  0  0  0  0  0  0  0  0  0
    0.6153    0.5497   -0.6599 N   0  0  0  0  0  0  0  0  0  0  0  0
    1.9559    0.8382   -0.9326 N   0  0  0  0  0  0  0  0  0  0  0  0
    2.9107    0.3193   -0.2508 C   0  0  0  0  0  0  0  0  0  0  0  0
    2.5850   -0.6079    0.8523 C   0  0  0  0  0  0  0  0  0  0  0  0
    4.2796    0.6293   -0.5479 C   0  0  0  0  0  0  0  0  0  0  0  0
    4.5594    1.4119   -1.4787 O   0  0  0  0  0  0  0  0  0  0  0  0
    5.2970    0.0679    0.1889 O   0  0  0  0  0  0  0  0  0  0  0  0
  1  2  1  0
  2  3  1  0
  3  4  1  0
  4  5  2  0
  5  6  1  0
  6  7  2  0
  7  8  1  0
  8  9  2  0
  9 10  1  0
 10 11  2  0
 10 12  1  0
 12 13  1  0
 13 14  2  0
 14 15  1  0
 14 16  1  0
 16 17  2  0
 16 18  1  0
  9  4  1  0
M  END
>  <zinc_id>  (81) 
ZINC000000002046

>  <smiles>  (81) 
CCOc1ccccc1C(=O)N/N=C(\C)C(=O)O

$$$$

     RDKit          3D

 18 19  0  0  0  0  0  0  0  0999 V2000
    0.8898   -1.1157    0.6811 O   0  0  0  0  0  0  0  0  0  0  0  0
    1.5665   -0.2252    0.1150 C   0  0  0  0  0  0  0  0  0  0  0  0
    0.8971    0.5862   -0.8318 N   0  0  0  0  0  0  0  0  0  0  0  0
   -0.4568    0.3421   -1.0684 N   0  0  0  0  0  0  0  0  0  0  0  0
   -1.3719    0.4459   -0.1952 C   0  0  0  0  0  0  0  0  0  0  0  0
   -2.7806    0.1990   -0.4140 C   0  0  0  0  0  0  0  0  0  0  0  0
   -3.6506    0.3559    0.6394 C   0  0  0  0  0  0  0  0  0  0  0  0
   -5.0163    0.1373    0.5068 C   0  0  0  0  0  0  0  0  0  0  0  0
   -5.5500   -0.2501   -0.7046 C   0  0  0  0  0  0  0  0  0  0  0  0
   -4.6674   -0.4088   -1.7715 C   0  0  0  0  0  0  0  0  0  0  0  0
   -3.3135   -0.1885   -1.6265 C   0  0  0  0  0  0  0  0  0  0  0  0
   -2.4392   -0.3482   -2.6928 O   0  0  0  0  0  0  0  0  0  0  0  0
    2.9889   -0.0483    0.4344 C   0  0  0  0  0  0  0  0  0  0  0  0
    3.5628   -0.8632    1.3527 C   0  0  0  0  0  0  0  0  0  0  0  0
    4.8819   -0.7536    1.6973 C   0  0  0  0  0  0  0  0  0  0  0  0
    5.6162    0.2015    1.0928 N   0  0  0  0  0  0  0  0  0  0  0  0
    5.0849    1.0196    0.1860 C   0  0  0  0  0  0  0  0  0  0  0  0
    3.7582    0.9140   -0.1648 C   0  0  0  0  0  0  0  0  0  0  0  0
  1  2  2  0
  2  3  1  0
  3  4  1  0
  4  5  2  0
  5  6  1  0
  6  7  2  0
  7  8  1  0
  8  9  2  0
  9 10  1  0
 10 11  2  0
 11 12  1  0
  2 13  1  0
 13 14  2  0
 14 15  1  0
 15 16  2  0
 16 17  1  0
 17 18  2  0
 11  6  1  0
 18 13  1  0
M  END
>  <zinc_id>  (82) 
ZINC000000002061

>  <smiles>  (82) 
O=C(N/N=C/c1ccccc1O)c1ccncc1

$$$$

     RDKit          3D

 25 26  0  0  0  0  0  0  0  0999 V2000
   -3.8671   -4.8825   -0.4729 C   0  0  0  0  0  0  0  0  0  0  0  0
   -2.8743   -4.4878   -1.3953 O   0  0  0  0  0  0  0  0  0  0  0  0
   -2.0879   -3.3582   -1.1566 C   0  0  0  0  0  0  0  0  0  0  0  0
   -1.1103   -2.9601   -2.0530 C   0  0  0  0  0  0  0  0  0  0  0  0
   -0.3666   -1.8398   -1.7657 C   0  0  0  0  0  0  0  0  0  0  0  0
   -0.5145   -1.0652   -0.6403 C   0  0  0  0  0  0  0  0  0  0  0  0
    0.2786    0.0995   -0.3673 C   0  0  0  0  0  0  0  0  0  0  0  0
    1.5626    0.1562   -0.6272 C   0  0  0  0  0  0  0  0  0  0  0  0
    2.2319   -0.9625   -1.2010 C   0  0  0  0  0  0  0  0  0  0  0  0
    2.7987   -1.8773   -1.6894 N   0  0  0  0  0  0  0  0  0  0  0  0
    2.3623    1.3936   -0.3422 C   0  0  0  0  0  0  0  0  0  0  0  0
    3.4358    1.2282    0.6558 C   0  0  0  0  0  0  0  0  0  0  0  0
    4.4978    0.2599    0.3286 C   0  0  0  0  0  0  0  0  0  0  0  0
    5.2756    0.3746   -0.6648 O   0  0  0  0  0  0  0  0  0  0  0  0
    4.6682   -0.8451    1.1443 O   0  0  0  0  0  0  0  0  0  0  0  0
   -0.4253    1.2603    0.2323 C   0  0  0  0  0  0  0  0  0  0  0  0
   -0.1372    2.5573   -0.1327 C   0  0  0  0  0  0  0  0  0  0  0  0
   -0.8201    3.6122    0.4723 C   0  0  0  0  0  0  0  0  0  0  0  0
   -1.7834    3.4159    1.4318 C   0  0  0  0  0  0  0  0  0  0  0  0
   -2.4544    4.4908    2.0249 O   0  0  0  0  0  0  0  0  0  0  0  0
   -3.4354    4.3465    3.0000 C   0  0  0  0  0  0  0  0  0  0  0  0
   -2.0671    2.1200    1.7921 C   0  0  0  0  0  0  0  0  0  0  0  0
   -1.3879    1.0620    1.1905 C   0  0  0  0  0  0  0  0  0  0  0  0
   -1.5116   -1.4888    0.2527 C   0  0  0  0  0  0  0  0  0  0  0  0
   -2.2684   -2.6098   -0.0168 C   0  0  0  0  0  0  0  0  0  0  0  0
  1  2  1  0
  2  3  1  0
  3  4  2  0
  4  5  1  0
  5  6  2  0
  6  7  1  0
  7  8  2  3
  8  9  1  0
  9 10  3  0
  8 11  1  0
 11 12  1  0
 12 13  1  0
 13 14  2  0
 13 15  1  0
  7 16  1  0
 16 17  2  0
 17 18  1  0
 18 19  2  0
 19 20  1  0
 20 21  1  0
 19 22  1  0
 22 23  2  0
  6 24  1  0
 24 25  2  0
 25  3  1  0
 23 16  1  0
M  END
>  <zinc_id>  (83) 
ZINC000000002066

>  <smiles>  (83) 
COc1ccc(C(=C(C#N)CCC(=O)O)c2ccc(OC)cc2)cc1

$$$$

     RDKit          3D

 22 24  0  0  0  0  0  0  0  0999 V2000
    6.9342   -1.2053    0.3728 N   0  0  0  0  0  0  0  0  0  0  0  0
    5.8849   -0.9641    0.6764 N   0  0  0  0  0  0  0  0  0  0  0  0
    4.6119   -1.1267    0.0779 C   0  0  0  0  0  0  0  0  0  0  0  0
    4.5835   -1.6526   -1.0444 O   0  0  0  0  0  0  0  0  0  0  0  0
    3.4292   -0.7583    0.6248 O   0  0  0  0  0  0  0  0  0  0  0  0
    2.1401   -0.8842    0.1011 C   0  0  0  0  0  0  0  0  0  0  0  0
    1.2313   -0.3228    1.1123 C   0  0  0  0  0  0  0  0  0  0  0  0
    0.7089    1.1492    0.5992 C   0  0  1  0  0  0  0  0  0  0  0  0
    2.0797    1.5256   -0.2495 C   0  0  0  0  0  0  0  0  0  0  0  0
    1.6947    1.6327   -1.5961 C   0  0  0  0  0  0  0  0  0  0  0  0
    0.7369    0.2920   -1.7632 C   0  0  1  0  0  0  0  0  0  0  0  0
    1.8504   -0.7775   -1.2105 C   0  0  0  0  0  0  0  0  0  0  0  0
   -0.0778    0.5966   -0.5459 N   0  0  0  0  0  0  0  0  0  0  0  0
   -1.4170    0.3968   -0.4649 C   0  0  0  0  0  0  0  0  0  0  0  0
   -2.0986   -0.0813   -1.4556 O   0  0  0  0  0  0  0  0  0  0  0  0
   -2.2479    0.6542    0.6307 O   0  0  0  0  0  0  0  0  0  0  0  0
   -3.6163    0.4137    0.6136 C   0  0  0  0  0  0  0  0  0  0  0  0
   -4.1826   -0.7766    0.9901 C   0  0  0  0  0  0  0  0  0  0  0  0
   -5.5670   -0.9203    0.9378 C   0  0  0  0  0  0  0  0  0  0  0  0
   -6.3925    0.0943    0.5196 C   0  0  0  0  0  0  0  0  0  0  0  0
   -5.8284    1.2893    0.1413 C   0  0  0  0  0  0  0  0  0  0  0  0
   -4.4575    1.4252    0.1954 C   0  0  0  0  0  0  0  0  0  0  0  0
  1  2  1  0
  2  3  1  0
  3  4  2  0
  3  5  1  0
  5  6  1  0
  6  7  1  0
  8  7  1  1
  8  9  1  0
  9 10  1  0
 11 10  1  1
 11 12  1  0
 11 13  1  0
 13 14  1  0
 14 15  2  0
 14 16  1  0
 16 17  1  0
 17 18  2  0
 18 19  1  0
 19 20  2  0
 20 21  1  0
 21 22  2  0
 12  6  1  0
 22 17  1  0
 13  8  1  0
M  END
>  <zinc_id>  (84) 
ZINC000000002229

>  <smiles>  (84) 
NNC(=O)OC1C[C@@H]2CC[C@H](C1)N2C(=O)Oc1ccccc1

$$$$

     RDKit          3D

 15 15  0  0  0  0  0  0  0  0999 V2000
    3.4458    1.1071    1.9411 O   0  0  0  0  0  0  0  0  0  0  0  0
    2.3714    0.8231    1.3497 C   0  0  0  0  0  0  0  0  0  0  0  0
    1.1735    1.2639    1.7468 N   0  0  0  0  0  0  0  0  0  0  0  0
    0.0868    0.9097    1.0544 C   0  0  0  0  0  0  0  0  0  0  0  0
    0.1711    0.0854   -0.0791 C   0  0  0  0  0  0  0  0  0  0  0  0
   -1.0066   -0.2783   -0.7896 N   0  0  0  0  0  0  0  0  0  0  0  0
   -1.5134   -1.6245   -0.8558 C   0  0  0  0  0  0  0  0  0  0  0  0
   -0.7266   -2.6117   -0.0601 C   0  0  0  0  0  0  0  0  0  0  0  0
   -0.6510   -2.2704    1.6665 Cl  0  0  0  0  0  0  0  0  0  0  0  0
   -1.7579    0.7497   -1.5145 C   0  0  0  0  0  0  0  0  0  0  0  0
   -3.1000    1.0010   -0.8914 C   0  0  0  0  0  0  0  0  0  0  0  0
   -3.9094    2.2767   -1.8680 Cl  0  0  0  0  0  0  0  0  0  0  0  0
    1.4169   -0.3486   -0.4580 C   0  0  0  0  0  0  0  0  0  0  0  0
    1.5188   -1.1014   -1.4898 O   0  0  0  0  0  0  0  0  0  0  0  0
    2.4806    0.0184    0.2479 N   0  0  0  0  0  0  0  0  0  0  0  0
  1  2  2  0
  2  3  1  0
  3  4  1  0
  4  5  2  0
  5  6  1  0
  6  7  1  0
  7  8  1  0
  8  9  1  0
  6 10  1  0
 10 11  1  0
 11 12  1  0
  5 13  1  0
 13 14  2  0
 13 15  1  0
 15  2  1  0
M  END
>  <zinc_id>  (85) 
ZINC000000002235

>  <smiles>  (85) 
O=c1[nH]cc(N(CCCl)CCCl)c(=O)[nH]1

$$$$

     RDKit          3D

 20 20  0  0  0  0  0  0  0  0999 V2000
   -5.6185    0.7893    0.0547 C   0  0  0  0  0  0  0  0  0  0  0  0
   -4.1815    0.9690   -0.1057 C   0  0  0  0  0  0  0  0  0  0  0  0
   -3.7361    2.0376   -0.5914 O   0  0  0  0  0  0  0  0  0  0  0  0
   -3.2482   -0.0789    0.2754 C   0  0  0  0  0  0  0  0  0  0  0  0
   -3.7441   -1.3240    0.8362 C   0  0  0  0  0  0  0  0  0  0  0  0
   -4.1914   -2.2837    1.2812 N   0  0  0  0  0  0  0  0  0  0  0  0
   -1.9454    0.0999    0.1030 C   0  0  0  0  0  0  0  0  0  0  0  0
   -1.5406    1.3520   -0.4610 O   0  0  0  0  0  0  0  0  0  0  0  0
   -0.9716   -0.8605    0.4394 N   0  0  0  0  0  0  0  0  0  0  0  0
   -1.1950   -2.2190    0.8685 C   0  0  0  0  0  0  0  0  0  0  0  0
    0.4219   -0.4874    0.3011 C   0  0  0  0  0  0  0  0  0  0  0  0
    1.4170   -1.3962    0.5531 C   0  0  0  0  0  0  0  0  0  0  0  0
    2.7352   -1.0441    0.4338 C   0  0  0  0  0  0  0  0  0  0  0  0
    3.1175    0.2477    0.0509 C   0  0  0  0  0  0  0  0  0  0  0  0
    4.5573    0.5255   -0.0747 C   0  0  0  0  0  0  0  0  0  0  0  0
    4.8849    1.7885   -0.8084 C   0  0  0  0  0  0  0  0  0  0  0  0
    5.0874    0.6253    1.3537 C   0  0  0  0  0  0  0  0  0  0  0  0
    5.2074   -0.6647   -0.7842 C   0  0  0  0  0  0  0  0  0  0  0  0
    2.1308    1.1375   -0.2002 C   0  0  0  0  0  0  0  0  0  0  0  0
    0.8131    0.7862   -0.0757 C   0  0  0  0  0  0  0  0  0  0  0  0
  1  2  1  0
  2  3  2  0
  2  4  1  0
  4  5  1  0
  5  6  3  0
  4  7  2  0
  7  8  1  0
  7  9  1  0
  9 10  1  0
  9 11  1  0
 11 12  2  0
 12 13  1  0
 13 14  2  0
 14 15  1  0
 15 16  1  0
 15 17  1  0
 15 18  1  0
 14 19  1  0
 19 20  2  0
 20 11  1  0
M  END
>  <zinc_id>  (86) 
ZINC000000002346

>  <smiles>  (86) 
CC(=O)/C(C#N)=C(\O)N(C)c1ccc(C(C)(C)C)cc1

$$$$

     RDKit          3D

 19 20  0  0  0  0  0  0  0  0999 V2000
   -4.6413    1.6463   -0.3314 C   0  0  0  0  0  0  0  0  0  0  0  0
   -4.2216    0.4780    0.5157 C   0  0  0  0  0  0  0  0  0  0  0  0
   -4.9598    0.2304    1.4998 O   0  0  0  0  0  0  0  0  0  0  0  0
   -3.0403   -0.3061    0.2051 C   0  0  0  0  0  0  0  0  0  0  0  0
   -2.6963   -1.4186    1.0624 C   0  0  0  0  0  0  0  0  0  0  0  0
   -2.4295   -2.3177    1.7488 N   0  0  0  0  0  0  0  0  0  0  0  0
   -2.3005    0.0101   -0.8447 C   0  0  0  0  0  0  0  0  0  0  0  0
   -2.7304    1.1141   -1.6057 O   0  0  0  0  0  0  0  0  0  0  0  0
   -1.1608   -0.7010   -1.1965 N   0  0  0  0  0  0  0  0  0  0  0  0
    0.1757   -0.3795   -0.8164 C   0  0  0  0  0  0  0  0  0  0  0  0
    1.2447   -1.0898   -1.3419 C   0  0  0  0  0  0  0  0  0  0  0  0
    2.5520   -0.8101   -1.0057 C   0  0  0  0  0  0  0  0  0  0  0  0
    2.8574    0.2079   -0.1136 C   0  0  0  0  0  0  0  0  0  0  0  0
    4.2748    0.5011    0.2436 C   0  0  0  0  0  0  0  0  0  0  0  0
    4.7154    1.8741   -0.2430 C   0  0  0  0  0  0  0  0  0  0  0  0
    5.2765   -0.6034    0.2066 C   0  0  0  0  0  0  0  0  0  0  0  0
    4.8075    0.0130    1.5333 C   0  0  0  0  0  0  0  0  0  0  0  0
    1.8031    0.9175    0.4113 C   0  0  0  0  0  0  0  0  0  0  0  0
    0.4735    0.6338    0.0723 C   0  0  0  0  0  0  0  0  0  0  0  0
  1  2  1  0
  2  3  2  0
  2  4  1  0
  4  5  1  0
  5  6  3  0
  4  7  2  0
  7  8  1  0
  7  9  1  0
  9 10  1  0
 10 11  2  0
 11 12  1  0
 12 13  2  0
 13 14  1  0
 14 15  1  0
 14 16  1  0
 16 17  1  0
 13 18  1  0
 18 19  2  0
 19 10  1  0
 17 14  1  0
M  END
>  <zinc_id>  (87) 
ZINC000000002349

>  <smiles>  (87) 
CC(=O)/C(C#N)=C(\O)Nc1ccc(C2(C)CC2)cc1

$$$$

     RDKit          3D

 21 22  0  0  0  0  0  0  0  0999 V2000
   -5.2204   -0.2088    2.0153 C   0  0  0  0  0  0  0  0  0  0  0  0
   -5.1853    0.3831    0.6587 C   0  0  0  0  0  0  0  0  0  0  0  0
   -6.1030    1.1689    0.3305 O   0  0  0  0  0  0  0  0  0  0  0  0
   -4.1009    0.0372   -0.2365 C   0  0  0  0  0  0  0  0  0  0  0  0
   -4.0421    0.6028   -1.5715 C   0  0  0  0  0  0  0  0  0  0  0  0
   -3.9896    1.0696   -2.6324 N   0  0  0  0  0  0  0  0  0  0  0  0
   -3.1578   -0.7921    0.1486 C   0  0  0  0  0  0  0  0  0  0  0  0
   -3.1543   -1.3723    1.4207 O   0  0  0  0  0  0  0  0  0  0  0  0
   -2.1161   -1.0982   -0.7690 N   0  0  0  0  0  0  0  0  0  0  0  0
   -0.7795   -0.7007   -0.4016 C   0  0  0  0  0  0  0  0  0  0  0  0
   -0.3705   -0.0561    0.7332 C   0  0  0  0  0  0  0  0  0  0  0  0
    0.9254    0.2121    0.8602 C   0  0  0  0  0  0  0  0  0  0  0  0
    1.7673   -0.1620   -0.1290 C   0  0  0  0  0  0  0  0  0  0  0  0
    3.2083    0.0364   -0.1830 C   0  0  0  0  0  0  0  0  0  0  0  0
    3.9022    0.6576    0.8189 C   0  0  0  0  0  0  0  0  0  0  0  0
    5.2812    0.8461    0.7646 C   0  0  0  0  0  0  0  0  0  0  0  0
    5.9541    0.3830   -0.3470 C   0  0  0  0  0  0  0  0  0  0  0  0
    7.3164    0.5529   -0.4322 F   0  0  0  0  0  0  0  0  0  0  0  0
    5.2752   -0.2439   -1.3643 C   0  0  0  0  0  0  0  0  0  0  0  0
    3.8924   -0.4201   -1.2850 C   0  0  0  0  0  0  0  0  0  0  0  0
    0.6970   -0.8956   -1.2351 S   0  0  0  0  0  0  0  0  0  0  0  0
  1  2  1  0
  2  3  2  0
  2  4  1  0
  4  5  1  0
  5  6  3  0
  4  7  2  0
  7  8  1  0
  7  9  1  0
  9 10  1  0
 10 11  2  0
 11 12  1  0
 12 13  2  0
 13 14  1  0
 14 15  2  0
 15 16  1  0
 16 17  2  0
 17 18  1  0
 17 19  1  0
 19 20  2  0
 13 21  1  0
 21 10  1  0
 20 14  1  0
M  END
>  <zinc_id>  (88) 
ZINC000000002404

>  <smiles>  (88) 
CC(=O)/C(C#N)=C(\O)Nc1ccc(-c2ccc(F)cc2)s1

$$$$

     RDKit          3D

 20 21  0  0  0  0  0  0  0  0999 V2000
   -4.3374   -2.0363    0.0361 C   0  0  0  0  0  0  0  0  0  0  0  0
   -4.7171   -0.6661    0.4325 C   0  0  0  0  0  0  0  0  0  0  0  0
   -5.8446   -0.4329    0.9118 O   0  0  0  0  0  0  0  0  0  0  0  0
   -3.7771    0.4231    0.2663 C   0  0  0  0  0  0  0  0  0  0  0  0
   -4.1264    1.7680    0.6463 C   0  0  0  0  0  0  0  0  0  0  0  0
   -4.4240    2.8484    0.9429 N   0  0  0  0  0  0  0  0  0  0  0  0
   -2.5588    0.2548   -0.2364 C   0  0  0  0  0  0  0  0  0  0  0  0
   -2.1921   -1.0232   -0.6110 O   0  0  0  0  0  0  0  0  0  0  0  0
   -1.6703    1.3539   -0.3808 N   0  0  0  0  0  0  0  0  0  0  0  0
   -0.2471    1.1027   -0.3567 C   0  0  0  0  0  0  0  0  0  0  0  0
    0.7647    2.0129   -0.4777 C   0  0  0  0  0  0  0  0  0  0  0  0
    2.0132    1.5636   -0.4274 C   0  0  0  0  0  0  0  0  0  0  0  0
    2.2056    0.2250   -0.2587 C   0  0  0  0  0  0  0  0  0  0  0  0
    3.4940   -0.4918   -0.1748 C   0  0  0  0  0  0  0  0  0  0  0  0
    4.6927    0.1751   -0.2658 C   0  0  0  0  0  0  0  0  0  0  0  0
    5.9036   -0.4811   -0.1892 C   0  0  0  0  0  0  0  0  0  0  0  0
    5.9415   -1.8491   -0.0160 C   0  0  0  0  0  0  0  0  0  0  0  0
    4.7363   -2.5265    0.0764 C   0  0  0  0  0  0  0  0  0  0  0  0
    3.5330   -1.8570   -0.0019 C   0  0  0  0  0  0  0  0  0  0  0  0
    0.6103   -0.3636   -0.1753 S   0  0  0  0  0  0  0  0  0  0  0  0
  1  2  1  0
  2  3  2  0
  2  4  1  0
  4  5  1  0
  5  6  3  0
  4  7  2  0
  7  8  1  0
  7  9  1  0
  9 10  1  0
 10 11  2  0
 11 12  1  0
 12 13  2  0
 13 14  1  0
 14 15  2  0
 15 16  1  0
 16 17  2  0
 17 18  1  0
 18 19  2  0
 13 20  1  0
 20 10  1  0
 19 14  1  0
M  END
>  <zinc_id>  (89) 
ZINC000000002406

>  <smiles>  (89) 
CC(=O)/C(C#N)=C(\O)Nc1ccc(-c2ccccc2)s1

$$$$

     RDKit          3D

 24 25  0  0  0  0  0  0  0  0999 V2000
    7.5463   -0.4614    0.0712 C   0  0  0  0  0  0  0  0  0  0  0  0
    6.1977   -1.1171    0.0332 C   0  0  0  0  0  0  0  0  0  0  0  0
    6.0333   -2.3484    0.1137 O   0  0  0  0  0  0  0  0  0  0  0  0
    5.0466   -0.2314   -0.1003 C   0  0  0  0  0  0  0  0  0  0  0  0
    5.2003    1.1803   -0.1965 C   0  0  0  0  0  0  0  0  0  0  0  0
    5.3373    2.3439   -0.2682 N   0  0  0  0  0  0  0  0  0  0  0  0
    3.7811   -0.7132   -0.1296 C   0  0  0  0  0  0  0  0  0  0  0  0
    3.7144   -2.1130   -0.0269 O   0  0  0  0  0  0  0  0  0  0  0  0
    2.7585    0.0929   -0.2424 N   0  0  0  0  0  0  0  0  0  0  0  0
    1.5637    0.7161   -0.3038 C   0  0  0  0  0  0  0  0  0  0  0  0
    0.2796    0.1908   -0.0946 C   0  0  0  0  0  0  0  0  0  0  0  0
   -0.7611    0.9879   -0.2117 C   0  0  0  0  0  0  0  0  0  0  0  0
   -2.1746    0.5401   -0.1169 C   0  0  0  0  0  0  0  0  0  0  0  0
   -3.1505    1.3278    0.3845 C   0  0  0  0  0  0  0  0  0  0  0  0
   -4.4848    0.8985    0.3984 C   0  0  0  0  0  0  0  0  0  0  0  0
   -4.8253   -0.3155   -0.0932 C   0  0  0  0  0  0  0  0  0  0  0  0
   -6.1963   -0.8324   -0.1865 C   0  0  0  0  0  0  0  0  0  0  0  0
   -7.2279    0.2935   -0.0792 C   0  0  0  0  0  0  0  0  0  0  0  0
   -6.3944   -1.4277   -1.5659 C   0  0  0  0  0  0  0  0  0  0  0  0
   -6.5361   -1.8530    0.8641 C   0  0  0  0  0  0  0  0  0  0  0  0
   -3.8095   -1.1395   -0.6095 C   0  0  0  0  0  0  0  0  0  0  0  0
   -2.5158   -0.7051   -0.6152 C   0  0  0  0  0  0  0  0  0  0  0  0
   -0.5292    2.3142   -0.5277 C   0  0  0  0  0  0  0  0  0  0  0  0
    1.1467    2.3718   -0.6472 S   0  0  0  0  0  0  0  0  0  0  0  0
  1  2  1  0
  2  3  2  0
  2  4  1  0
  4  5  1  0
  5  6  3  0
  4  7  2  0
  7  8  1  0
  7  9  1  0
  9 10  1  0
 10 11  2  0
 11 12  1  0
 12 13  1  0
 13 14  2  0
 14 15  1  0
 15 16  2  0
 16 17  1  0
 17 18  1  0
 17 19  1  0
 17 20  1  0
 16 21  1  0
 21 22  2  0
 12 23  2  0
 23 24  1  0
 24 10  1  0
 22 13  1  0
M  END
>  <zinc_id>  (90) 
ZINC000000002408

>  <smiles>  (90) 
CC(=O)/C(C#N)=C(\O)Nc1cc(-c2ccc(C(C)(C)C)cc2)cs1

$$$$

     RDKit          3D

 24 25  0  0  0  0  0  0  0  0999 V2000
   -6.3589   -0.1337    1.8815 C   0  0  0  0  0  0  0  0  0  0  0  0
   -6.2741   -0.3625    0.4498 C   0  0  0  0  0  0  0  0  0  0  0  0
   -7.2454   -0.7659   -0.2057 O   0  0  0  0  0  0  0  0  0  0  0  0
   -4.9919   -0.1030   -0.2235 C   0  0  0  0  0  0  0  0  0  0  0  0
   -4.8628   -0.2972   -1.6473 C   0  0  0  0  0  0  0  0  0  0  0  0
   -4.7603   -0.4741   -2.7766 N   0  0  0  0  0  0  0  0  0  0  0  0
   -3.9290    0.3164    0.4387 C   0  0  0  0  0  0  0  0  0  0  0  0
   -4.0275    0.5213    1.8053 O   0  0  0  0  0  0  0  0  0  0  0  0
   -2.7209    0.5377   -0.2955 N   0  0  0  0  0  0  0  0  0  0  0  0
   -1.5054    0.2048    0.4088 C   0  0  0  0  0  0  0  0  0  0  0  0
   -0.2605    0.2820    0.0073 N   0  0  0  0  0  0  0  0  0  0  0  0
    0.7171   -0.0668    0.7870 C   0  0  0  0  0  0  0  0  0  0  0  0
    2.1336    0.0075    0.3245 C   0  0  0  0  0  0  0  0  0  0  0  0
    2.4780    0.4000   -0.9467 C   0  0  0  0  0  0  0  0  0  0  0  0
    3.7936    0.4561   -1.3640 C   0  0  0  0  0  0  0  0  0  0  0  0
    4.8263    0.1161   -0.5174 C   0  0  0  0  0  0  0  0  0  0  0  0
    6.2404    0.1854   -0.9957 C   0  0  0  0  0  0  0  0  0  0  0  0
    7.1504    0.6958    0.0996 C   0  0  0  0  0  0  0  0  0  0  0  0
    6.2567    1.1796   -2.1472 C   0  0  0  0  0  0  0  0  0  0  0  0
    6.6837   -1.1660   -1.4889 C   0  0  0  0  0  0  0  0  0  0  0  0
    4.4748   -0.2745    0.7558 C   0  0  0  0  0  0  0  0  0  0  0  0
    3.1622   -0.3254    1.1576 C   0  0  0  0  0  0  0  0  0  0  0  0
    0.3661   -0.5234    2.0446 C   0  0  0  0  0  0  0  0  0  0  0  0
   -1.3465   -0.4102    2.0039 S   0  0  0  0  0  0  0  0  0  0  0  0
  1  2  1  0
  2  3  2  0
  2  4  1  0
  4  5  1  0
  5  6  3  0
  4  7  2  0
  7  8  1  0
  7  9  1  0
  9 10  1  0
 10 11  2  0
 11 12  1  0
 12 13  1  0
 13 14  2  0
 14 15  1  0
 15 16  2  0
 16 17  1  0
 17 18  1  0
 17 19  1  0
 17 20  1  0
 16 21  1  0
 21 22  2  0
 12 23  2  0
 23 24  1  0
 24 10  1  0
 22 13  1  0
M  END
>  <zinc_id>  (91) 
ZINC000000002409

>  <smiles>  (91) 
CC(=O)/C(C#N)=C(\O)Nc1nc(-c2ccc(C(C)(C)C)cc2)cs1

$$$$

     RDKit          3D

 25 26  0  0  0  0  0  0  0  0999 V2000
    4.2628    3.5304   -0.4886 C   0  0  0  0  0  0  0  0  0  0  0  0
    4.9121    2.3717   -0.1062 C   0  0  0  0  0  0  0  0  0  0  0  0
    6.2186    2.4121    0.2722 O   0  0  0  0  0  0  0  0  0  0  0  0
    4.5395    0.9351   -0.0008 C   0  0  0  0  0  0  0  0  0  0  0  0
    5.4415   -0.0709    0.4273 C   0  0  0  0  0  0  0  0  0  0  0  0
    6.1545   -0.9141    0.7826 N   0  0  0  0  0  0  0  0  0  0  0  0
    3.2568    0.6035   -0.3309 C   0  0  0  0  0  0  0  0  0  0  0  0
    2.3795    1.5850   -0.7429 O   0  0  0  0  0  0  0  0  0  0  0  0
    2.9023   -0.7241   -0.2235 N   0  0  0  0  0  0  0  0  0  0  0  0
    1.7125   -1.3821   -0.0910 C   0  0  0  0  0  0  0  0  0  0  0  0
    1.7885   -2.7582   -0.0349 N   0  0  0  0  0  0  0  0  0  0  0  0
    0.7107   -3.4890    0.0670 C   0  0  0  0  0  0  0  0  0  0  0  0
   -0.5724   -2.9485    0.1309 C   0  0  0  0  0  0  0  0  0  0  0  0
   -0.6499   -1.5437    0.0692 C   0  0  0  0  0  0  0  0  0  0  0  0
   -1.9659   -0.9196    0.1170 C   0  0  0  0  0  0  0  0  0  0  0  0
   -3.1279   -1.6674    0.1777 C   0  0  0  0  0  0  0  0  0  0  0  0
   -4.3727   -1.0481    0.1883 C   0  0  0  0  0  0  0  0  0  0  0  0
   -4.4497    0.3214    0.1467 C   0  0  0  0  0  0  0  0  0  0  0  0
   -5.7424    1.0727    0.1470 C   0  0  0  0  0  0  0  0  0  0  0  0
   -5.6463    2.1901    1.1766 C   0  0  0  0  0  0  0  0  0  0  0  0
   -5.9155    1.6320   -1.2614 C   0  0  0  0  0  0  0  0  0  0  0  0
   -6.8959    0.1543    0.4779 C   0  0  0  0  0  0  0  0  0  0  0  0
   -3.3018    1.1066    0.0926 C   0  0  0  0  0  0  0  0  0  0  0  0
   -2.1168    0.4275    0.0786 C   0  0  0  0  0  0  0  0  0  0  0  0
    0.4781   -0.8767   -0.0387 N   0  0  0  0  0  0  0  0  0  0  0  0
  1  2  1  0
  2  3  2  0
  2  4  1  0
  4  5  1  0
  5  6  3  0
  4  7  2  0
  7  8  1  0
  7  9  1  0
  9 10  1  0
 10 11  2  0
 11 12  1  0
 12 13  2  0
 13 14  1  0
 14 15  1  0
 15 16  2  0
 16 17  1  0
 17 18  2  0
 18 19  1  0
 19 20  1  0
 19 21  1  0
 19 22  1  0
 18 23  1  0
 23 24  2  0
 14 25  2  0
 25 10  1  0
 24 15  1  0
M  END
>  <zinc_id>  (92) 
ZINC000000002410

>  <smiles>  (92) 
CC(=O)/C(C#N)=C(\O)Nc1nccc(-c2ccc(C(C)(C)C)cc2)n1

$$$$

     RDKit          3D

 24 25  0  0  0  0  0  0  0  0999 V2000
    7.3794   -1.0263    0.9024 C   0  0  0  0  0  0  0  0  0  0  0  0
    6.1672   -0.1362    0.9516 C   0  0  0  0  0  0  0  0  0  0  0  0
    6.2041    0.7907    1.7893 O   0  0  0  0  0  0  0  0  0  0  0  0
    5.0074   -0.3124    0.0870 C   0  0  0  0  0  0  0  0  0  0  0  0
    4.9662   -1.3753   -0.8825 C   0  0  0  0  0  0  0  0  0  0  0  0
    4.9352   -2.2185   -1.6516 N   0  0  0  0  0  0  0  0  0  0  0  0
    3.9760    0.5181    0.1928 C   0  0  0  0  0  0  0  0  0  0  0  0
    4.0428    1.5444    1.1492 O   0  0  0  0  0  0  0  0  0  0  0  0
    2.8142    0.4126   -0.6225 N   0  0  0  0  0  0  0  0  0  0  0  0
    1.5156    0.3877   -0.0447 C   0  0  0  0  0  0  0  0  0  0  0  0
    1.2916    0.4616    1.3274 C   0  0  0  0  0  0  0  0  0  0  0  0
   -0.0587    0.3914    1.4734 C   0  0  0  0  0  0  0  0  0  0  0  0
   -0.6734    0.2744    0.2405 C   0  0  0  0  0  0  0  0  0  0  0  0
   -2.0857    0.1719   -0.0493 C   0  0  0  0  0  0  0  0  0  0  0  0
   -3.0483    0.1962    0.9444 C   0  0  0  0  0  0  0  0  0  0  0  0
   -4.3826    0.1108    0.7272 C   0  0  0  0  0  0  0  0  0  0  0  0
   -4.8929   -0.0123   -0.5679 C   0  0  0  0  0  0  0  0  0  0  0  0
   -6.3322   -0.0946   -0.8385 C   0  0  0  0  0  0  0  0  0  0  0  0
   -6.9898    1.2847   -0.6887 C   0  0  0  0  0  0  0  0  0  0  0  0
   -6.6185   -0.7061   -2.1645 C   0  0  0  0  0  0  0  0  0  0  0  0
   -7.0125   -0.9493    0.2214 C   0  0  0  0  0  0  0  0  0  0  0  0
   -3.9384   -0.0380   -1.5819 C   0  0  0  0  0  0  0  0  0  0  0  0
   -2.5869    0.0460   -1.3454 C   0  0  0  0  0  0  0  0  0  0  0  0
    0.3200    0.2783   -0.6429 N   0  0  0  0  0  0  0  0  0  0  0  0
  1  2  1  0
  2  3  2  0
  2  4  1  0
  4  5  1  0
  5  6  3  0
  4  7  2  0
  7  8  1  0
  7  9  1  0
  9 10  1  0
 10 11  2  0
 11 12  1  0
 12 13  2  0
 13 14  1  0
 14 15  2  0
 15 16  1  0
 16 17  2  0
 17 18  1  0
 18 19  1  0
 18 20  1  0
 18 21  1  0
 17 22  1  0
 22 23  2  0
 13 24  1  0
 24 10  1  0
 23 14  1  0
M  END
>  <zinc_id>  (93) 
ZINC000000002411

>  <smiles>  (93) 
CC(=O)/C(C#N)=C(\O)Nc1ccc(-c2ccc(C(C)(C)C)cc2)[nH]1

$$$$

     RDKit          3D

 24 25  0  0  0  0  0  0  0  0999 V2000
   -6.5099    0.4725    2.6105 C   0  0  0  0  0  0  0  0  0  0  0  0
   -5.2145    0.3889    1.8530 C   0  0  0  0  0  0  0  0  0  0  0  0
   -4.0427    0.7538    2.4932 O   0  0  0  0  0  0  0  0  0  0  0  0
   -5.1951   -0.0298    0.5817 C   0  0  0  0  0  0  0  0  0  0  0  0
   -6.4478   -0.3838   -0.0065 C   0  0  0  0  0  0  0  0  0  0  0  0
   -7.4602   -0.6792   -0.5004 N   0  0  0  0  0  0  0  0  0  0  0  0
   -3.9257   -0.1157   -0.1104 C   0  0  0  0  0  0  0  0  0  0  0  0
   -3.9370   -0.4818   -1.3178 O   0  0  0  0  0  0  0  0  0  0  0  0
   -2.6917    0.1810    0.4885 N   0  0  0  0  0  0  0  0  0  0  0  0
   -1.4510    0.0890   -0.2385 C   0  0  0  0  0  0  0  0  0  0  0  0
   -1.3717   -0.2189   -1.5703 C   0  0  0  0  0  0  0  0  0  0  0  0
   -0.0286   -0.2129   -1.8973 C   0  0  0  0  0  0  0  0  0  0  0  0
    0.6507    0.1081   -0.7161 C   0  0  0  0  0  0  0  0  0  0  0  0
    2.0997    0.2327   -0.5539 C   0  0  0  0  0  0  0  0  0  0  0  0
    2.6414    0.4242    0.7012 C   0  0  0  0  0  0  0  0  0  0  0  0
    4.0036    0.5706    0.8897 C   0  0  0  0  0  0  0  0  0  0  0  0
    4.8804    0.5308   -0.1914 C   0  0  0  0  0  0  0  0  0  0  0  0
    6.3570    0.6806    0.0231 C   0  0  0  0  0  0  0  0  0  0  0  0
    6.6808    0.8075    1.4921 C   0  0  0  0  0  0  0  0  0  0  0  0
    7.0576   -0.5508   -0.5092 C   0  0  0  0  0  0  0  0  0  0  0  0
    6.8692    1.9496   -0.6403 C   0  0  0  0  0  0  0  0  0  0  0  0
    4.3255    0.3409   -1.4374 C   0  0  0  0  0  0  0  0  0  0  0  0
    2.9583    0.1901   -1.6351 C   0  0  0  0  0  0  0  0  0  0  0  0
   -0.2484    0.2648    0.1917 O   0  0  0  0  0  0  0  0  0  0  0  0
  1  2  1  0
  2  3  1  0
  2  4  2  0
  4  5  1  0
  5  6  3  0
  4  7  1  0
  7  8  2  0
  7  9  1  0
  9 10  1  0
 10 11  2  0
 11 12  1  0
 12 13  2  0
 13 14  1  0
 14 15  2  0
 15 16  1  0
 16 17  2  0
 17 18  1  0
 18 19  1  0
 18 20  1  0
 18 21  1  0
 17 22  1  0
 22 23  2  0
 13 24  1  0
 24 10  1  0
 23 14  1  0
M  END
>  <zinc_id>  (94) 
ZINC000000002412

>  <smiles>  (94) 
C/C(O)=C(\C#N)C(=O)Nc1ccc(-c2ccc(C(C)(C)C)cc2)o1

$$$$

     RDKit          3D

 19 21  0  0  0  0  0  0  0  0999 V2000
   -1.0859   -3.4013   -1.3096 O   0  0  0  0  0  0  0  0  0  0  0  0
   -1.0081   -2.5360   -0.5417 C   0  0  0  0  0  0  0  0  0  0  0  0
   -0.7763   -2.6136    0.8528 N   0  0  0  0  0  0  0  0  0  0  0  0
   -0.7573   -1.3126    1.4078 C   0  0  0  0  0  0  0  0  0  0  0  0
   -0.8105   -1.0216    2.6279 O   0  0  0  0  0  0  0  0  0  0  0  0
   -0.6641   -0.3617    0.3055 C   0  0  1  0  0  0  0  0  0  0  0  0
   -1.5563    0.8493    0.5353 C   0  0  0  0  0  0  0  0  0  0  0  0
   -1.5452    1.4767   -1.0259 C   0  0  1  0  0  0  0  0  0  0  0  0
   -2.4709    2.7955   -0.5640 C   0  0  0  0  0  0  0  0  0  0  0  0
   -3.9710    2.0771    0.0463 Cl  0  0  0  0  0  0  0  0  0  0  0  0
   -0.2132    2.2514   -0.7569 O   0  0  0  0  0  0  0  0  0  0  0  0
    0.8424    1.4026   -0.4522 C   0  0  0  0  0  0  0  0  0  0  0  0
    2.1145    1.8762   -0.6847 C   0  0  0  0  0  0  0  0  0  0  0  0
    3.2497    1.1354   -0.4259 C   0  0  0  0  0  0  0  0  0  0  0  0
    3.0959   -0.1364    0.0890 C   0  0  0  0  0  0  0  0  0  0  0  0
    4.1856   -0.8816    0.3511 F   0  0  0  0  0  0  0  0  0  0  0  0
    1.8059   -0.6090    0.3217 C   0  0  0  0  0  0  0  0  0  0  0  0
    0.6965    0.1503    0.0546 C   0  0  0  0  0  0  0  0  0  0  0  0
   -1.1318   -1.1408   -0.8310 N   0  0  0  0  0  0  0  0  0  0  0  0
  1  2  2  0
  2  3  1  0
  3  4  1  0
  4  5  2  0
  4  6  1  0
  6  7  1  1
  7  8  1  0
  8  9  1  1
  9 10  1  0
  8 11  1  0
 11 12  1  0
 12 13  2  0
 13 14  1  0
 14 15  2  0
 15 16  1  0
 15 17  1  0
 17 18  2  0
  6 19  1  0
 19  2  1  0
 18  6  1  0
 18 12  1  0
M  END
>  <zinc_id>  (95) 
ZINC000000002487

>  <smiles>  (95) 
O=C1NC(=O)[C@]2(C[C@@H](CCl)Oc3ccc(F)cc32)N1

$$$$

     RDKit          3D

 19 21  0  0  0  0  0  0  0  0999 V2000
    0.1645    3.7194   -1.2896 O   0  0  0  0  0  0  0  0  0  0  0  0
    0.1263    2.9835   -0.5502 C   0  0  0  0  0  0  0  0  0  0  0  0
    0.5668    2.9942    0.8269 N   0  0  0  0  0  0  0  0  0  0  0  0
    0.2916    1.7293    1.4394 C   0  0  0  0  0  0  0  0  0  0  0  0
    0.1307    1.4476    2.6683 O   0  0  0  0  0  0  0  0  0  0  0  0
    0.2346    0.7916    0.2831 C   0  0  1  0  0  0  0  0  0  0  0  0
    1.6114    0.5599   -0.1694 C   0  0  0  0  0  0  0  0  0  0  0  0
    1.6983   -0.8771   -0.9331 C   0  0  1  0  0  0  0  0  0  0  0  0
    3.3033   -1.0519   -0.5833 C   0  0  0  0  0  0  0  0  0  0  0  0
    3.8753   -2.7057   -1.3311 Br  0  0  0  0  0  0  0  0  0  0  0  0
    1.2559   -1.6845    0.2854 O   0  0  0  0  0  0  0  0  0  0  0  0
   -0.1095   -1.6091    0.4820 C   0  0  0  0  0  0  0  0  0  0  0  0
   -0.9318   -2.7003    0.6740 C   0  0  0  0  0  0  0  0  0  0  0  0
   -2.2801   -2.5048    0.8617 C   0  0  0  0  0  0  0  0  0  0  0  0
   -2.7889   -1.2258    0.8551 C   0  0  0  0  0  0  0  0  0  0  0  0
   -4.1195   -1.0842    1.0435 F   0  0  0  0  0  0  0  0  0  0  0  0
   -1.9866   -0.1200    0.6649 C   0  0  0  0  0  0  0  0  0  0  0  0
   -0.6356   -0.3378    0.4785 C   0  0  0  0  0  0  0  0  0  0  0  0
   -0.4070    1.6756   -0.7022 N   0  0  0  0  0  0  0  0  0  0  0  0
  1  2  2  0
  2  3  1  0
  3  4  1  0
  4  5  2  0
  4  6  1  0
  6  7  1  6
  7  8  1  0
  8  9  1  1
  9 10  1  0
  8 11  1  0
 11 12  1  0
 12 13  2  0
 13 14  1  0
 14 15  2  0
 15 16  1  0
 15 17  1  0
 17 18  2  0
  6 19  1  0
 19  2  1  0
 18  6  1  0
 18 12  1  0
M  END
>  <zinc_id>  (96) 
ZINC000000002488

>  <smiles>  (96) 
O=C1NC(=O)[C@]2(C[C@@H](CBr)Oc3ccc(F)cc32)N1

$$$$

     RDKit          2D

 18 21  0  0  0  0  0  0  0  0999 V2000
    3.7812    1.9824    0.0000 C   0  0  0  0  0  0  0  0  0  0  0  0
    2.6065    1.0496    0.0000 C   0  0  0  0  0  0  0  0  0  0  0  0
    2.9372   -0.4135    0.0000 C   0  0  0  0  0  0  0  0  0  0  0  0
    1.9995   -1.5843    0.0000 C   0  0  0  0  0  0  0  0  0  0  0  0
    0.4995   -1.5811    0.0000 C   0  0  0  0  0  0  0  0  0  0  0  0
   -0.0514   -2.9763    0.0000 C   0  0  0  0  0  0  0  0  0  0  0  0
   -1.5351   -3.1967    0.0000 C   0  0  0  0  0  0  0  0  0  0  0  0
   -2.4679   -2.0220    0.0000 C   0  0  0  0  0  0  0  0  0  0  0  0
   -1.9169   -0.6269    0.0000 C   0  0  0  0  0  0  0  0  0  0  0  0
   -2.8497    0.5478    0.0000 C   0  0  0  0  0  0  0  0  0  0  0  0
   -2.2988    1.9430    0.0000 C   0  0  0  0  0  0  0  0  0  0  0  0
   -3.2316    3.1177    0.0000 O   0  0  0  0  0  0  0  0  0  0  0  0
   -0.8151    2.1635    0.0000 O   0  0  0  0  0  0  0  0  0  0  0  0
    0.1177    0.9888    0.0000 C   0  0  0  0  0  0  0  0  0  0  0  0
    1.4847    0.3712    0.0000 O   0  0  0  0  0  0  0  0  0  0  0  0
   -0.4332   -0.4064    0.0000 C   0  0  0  0  0  0  0  0  0  0  0  0
    0.9744    0.2678    0.0000 O   0  0  0  0  0  0  0  0  0  0  0  0
    1.1989    0.3754    0.0000 O   0  0  0  0  0  0  0  0  0  0  0  0
  2  1  1  6
  2  3  1  0
  3  4  1  0
  4  5  1  0
  5  6  1  6
  6  7  1  0
  7  8  1  0
  9  8  1  1
  9 10  1  0
 10 11  1  0
 11 12  2  0
 11 13  1  0
 14 13  1  6
 14 15  1  0
 14 16  1  0
 16 17  1  1
 17 18  1  0
 15  2  1  0
 18  2  1  0
 16  5  1  0
 16  9  1  0
M  END
>  <zinc_id>  (97) 
ZINC000000002661

>  <smiles>  (97) 
C[C@]12CC[C@@H]3CCC[C@H]4CC(=O)O[C@H](O1)[C@]34OO2

$$$$

     RDKit          3D

 11 11  0  0  0  0  0  0  0  0999 V2000
    3.5209   -1.1573   -0.9095 N   0  0  0  0  0  0  0  0  0  0  0  0
    2.9122   -0.5370   -0.1426 C   0  0  0  0  0  0  0  0  0  0  0  0
    1.9518    0.4118    1.0186 S   0  0  0  0  0  0  0  0  0  0  0  0
    0.2296    0.1693    0.6091 C   0  0  0  0  0  0  0  0  0  0  0  0
   -0.4430   -0.8748    1.2046 C   0  0  0  0  0  0  0  0  0  0  0  0
   -1.7556   -1.3133    1.0077 C   0  0  0  0  0  0  0  0  0  0  0  0
   -2.5651   -0.9989   -0.0878 C   0  0  0  0  0  0  0  0  0  0  0  0
   -2.4977    0.1135   -0.9012 C   0  0  0  0  0  0  0  0  0  0  0  0
   -1.4789    1.0230   -1.0244 C   0  0  0  0  0  0  0  0  0  0  0  0
   -0.2857    1.0743   -0.2913 C   0  0  0  0  0  0  0  0  0  0  0  0
    0.4116    2.0894   -0.4833 O   0  0  0  0  0  0  0  0  0  0  0  0
  1  2  3  0
  2  3  1  0
  3  4  1  0
  4  5  2  0
  5  6  1  0
  6  7  2  0
  7  8  1  0
  8  9  2  0
  9 10  1  0
 10 11  2  0
 10  4  1  0
M  END
>  <zinc_id>  (98) 
ZINC000000002745

>  <smiles>  (98) 
N#CSc1cccccc1=O

$$$$

     RDKit          3D

 17 17  0  0  0  0  0  0  0  0999 V2000
    5.2029    1.1829    0.9768 N   0  0  0  0  0  0  0  0  0  0  0  0
    4.1677    0.7499    0.6816 C   0  0  0  0  0  0  0  0  0  0  0  0
    2.8629    0.2293    0.3186 C   0  0  0  0  0  0  0  0  0  0  0  0
    2.8556   -0.8352   -0.6355 C   0  0  0  0  0  0  0  0  0  0  0  0
    2.8701   -1.7064   -1.4297 N   0  0  0  0  0  0  0  0  0  0  0  0
    1.7576    0.7027    0.8262 C   0  0  0  0  0  0  0  0  0  0  0  0
    0.4494    0.1841    0.4667 C   0  0  0  0  0  0  0  0  0  0  0  0
    0.1939   -1.1503    0.2394 C   0  0  0  0  0  0  0  0  0  0  0  0
   -1.0656   -1.6060   -0.0996 C   0  0  0  0  0  0  0  0  0  0  0  0
   -1.2745   -2.9761   -0.3211 O   0  0  0  0  0  0  0  0  0  0  0  0
   -2.1331   -0.7431   -0.2273 C   0  0  0  0  0  0  0  0  0  0  0  0
   -3.4016   -1.1954   -0.5673 O   0  0  0  0  0  0  0  0  0  0  0  0
   -1.9070    0.6120   -0.0040 C   0  0  0  0  0  0  0  0  0  0  0  0
   -2.9949    1.5144   -0.1313 N   0  0  0  0  0  0  0  0  0  0  0  0
   -4.1634    1.1923    0.1347 O   0  0  0  0  0  0  0  0  0  0  0  0
   -2.7766    2.7965   -0.5617 O   0  0  0  0  0  0  0  0  0  0  0  0
   -0.6433    1.0486    0.3336 C   0  0  0  0  0  0  0  0  0  0  0  0
  1  2  3  0
  2  3  1  0
  3  4  1  0
  4  5  3  0
  3  6  2  3
  6  7  1  0
  7  8  2  0
  8  9  1  0
  9 10  1  0
  9 11  2  0
 11 12  1  0
 11 13  1  0
 13 14  1  0
 14 15  2  0
 14 16  1  0
 13 17  2  0
 17  7  1  0
M  CHG  2  14   1  16  -1
M  END
>  <zinc_id>  (99) 
ZINC000000002775

>  <smiles>  (99) 
N#CC(C#N)=Cc1cc(O)c(O)c([N+](=O)[O-])c1

$$$$

     RDKit          2D

 19 22  0  0  0  0  0  0  0  0999 V2000
   -2.3850    3.2363    0.0000 C   0  0  0  0  0  0  0  0  0  0  0  0
   -1.0503    2.5519    0.0000 C   0  0  0  0  0  0  0  0  0  0  0  0
    0.2098    3.3656    0.0000 C   0  0  0  0  0  0  0  0  0  0  0  0
    1.5446    2.6812    0.0000 C   0  0  0  0  0  0  0  0  0  0  0  0
    1.6192    1.1830    0.0000 C   0  0  0  0  0  0  0  0  0  0  0  0
    2.9540    0.4986    0.0000 C   0  0  0  0  0  0  0  0  0  0  0  0
    3.0286   -0.9995    0.0000 C   0  0  0  0  0  0  0  0  0  0  0  0
    4.3634   -1.6840    0.0000 O   0  0  0  0  0  0  0  0  0  0  0  0
    1.7685   -1.8133    0.0000 O   0  0  0  0  0  0  0  0  0  0  0  0
    0.4338   -1.1288    0.0000 C   0  0  0  0  0  0  0  0  0  0  0  0
   -1.0662   -1.1312    0.0000 O   0  0  0  0  0  0  0  0  0  0  0  0
   -1.8076   -2.2125    0.0000 C   0  0  0  0  0  0  0  0  0  0  0  0
   -2.4920   -3.5472    0.0000 C   0  0  0  0  0  0  0  0  0  0  0  0
   -2.7132   -1.0167    0.0000 C   0  0  0  0  0  0  0  0  0  0  0  0
   -2.3429    0.4369    0.0000 C   0  0  0  0  0  0  0  0  0  0  0  0
   -0.9756    1.0537    0.0000 C   0  0  0  0  0  0  0  0  0  0  0  0
    0.3591    0.3693    0.0000 C   0  0  0  0  0  0  0  0  0  0  0  0
   -0.6442   -0.8262    0.0000 O   0  0  0  0  0  0  0  0  0  0  0  0
   -0.8042   -1.0170    0.0000 O   0  0  0  0  0  0  0  0  0  0  0  0
  2  1  1  1
  2  3  1  0
  3  4  1  0
  5  4  1  6
  5  6  1  0
  6  7  1  0
  7  8  2  0
  7  9  1  0
 10  9  1  6
 10 11  1  0
 11 12  1  0
 12 13  1  6
 12 14  1  0
 14 15  1  0
 16 15  1  1
 16 17  1  0
 17 18  1  1
 18 19  1  0
 16  2  1  0
 17  5  1  0
 17 10  1  0
 19 12  1  0
M  END
>  <zinc_id>  (100) 
ZINC000000002808

>  <smiles>  (100) 
C[C@H]1CC[C@@H]2CC(=O)O[C@@H]3O[C@]4(C)CC[C@@H]1[C@@]32OO4

$$$$
